/*---------------------------------------------------------------------------*\
| =========                 |                                                 |
| \\      /  F ield         | OpenFOAM: The Open Source CFD Toolbox           |
|  \\    /   O peration     | Version:  2312                                  |
|   \\  /    A nd           | Website:  www.openfoam.com                      |
|    \\/     M anipulation  |                                                 |
\*---------------------------------------------------------------------------*/
Build  : _1d8f0d55f7-20231221 OPENFOAM=2312 version=v2312
Arch   : "LSB;label=32;scalar=64"
Exec   : simpleFoam -parallel -decomposeParDict system/decomposeParDict.6
Date   : May 26 2024
Time   : 02:17:04
Host   : aion-0125
PID    : 1860000
I/O    : uncollated
Case   : /mnt/aiongpfs/users/pvares/OpenFOAM/openfoam-OpenFOAM-v2312-tutorials-incompressible-simpleFoam-motorBike/tutorials/incompressible/simpleFoam/motorBike
nProcs : 6
Hosts  :
(
    (aion-0125 6)
)
Pstream initialized with:
    floatTransfer      : false
    nProcsSimpleSum    : 0
    nonBlockingExchange: 0 (tuning: 0)
    exchange algorithm : 0
    commsType          : nonBlocking
    polling iterations : 0
trapFpe: Floating point exception trapping enabled (FOAM_SIGFPE).
fileModificationChecking : Monitoring run-time modified files using timeStampMaster (fileModificationSkew 5, maxFileModificationPolls 20)
allowSystemOperations : Allowing user-supplied system call operations

// * * * * * * * * * * * * * * * * * * * * * * * * * * * * * * * * * * * * * //
Create time

Create mesh for time = 0


SIMPLE: no convergence criteria found. Calculations will run for 500 steps.

Reading field p

Reading field U

Reading/calculating face flux field phi

Selecting incompressible transport model Newtonian
Selecting turbulence model type RAS
Selecting RAS turbulence model kOmegaSST
Selecting patchDistMethod meshWave
RAS
{
    RASModel        kOmegaSST;
    turbulence      on;
    printCoeffs     on;
    alphaK1         0.85;
    alphaK2         1;
    alphaOmega1     0.5;
    alphaOmega2     0.856;
    gamma1          0.555556;
    gamma2          0.44;
    beta1           0.075;
    beta2           0.0828;
    betaStar        0.09;
    a1              0.31;
    b1              1;
    c1              10;
    F3              false;
    decayControl    false;
    kInf            0;
    omegaInf        0;
}

No MRF models present

No finite volume options present

Starting time loop

streamLine streamLines:
    Employing velocity field U
    automatic track length specified through number of sub cycles : 5

--> FOAM Warning : 
    From Foam::labelHashSet Foam::polyBoundaryMesh::patchSet(const Foam::UList<Foam::wordRe>&, bool, bool) const
    in file meshes/polyMesh/polyBoundaryMesh/polyBoundaryMesh.C at line 1098
    Cannot find any patch or group names matching motorBikeGroup
nearWallFields near: Sampling 1 fields
wallBoundedStreamLine wallBoundedStreamLines:
    Employing velocity field UNear
Sampled surface:
    yNormal -> vtk
        sampledCuttingPlane: yNormal : plane:(0 1 0) (0 0 0) offsets:(0)

forceCoeffs forceCoeffs1:
--> FOAM Warning : 
    From Foam::labelHashSet Foam::polyBoundaryMesh::patchSet(const Foam::UList<Foam::wordRe>&, bool, bool) const
    in file meshes/polyMesh/polyBoundaryMesh/polyBoundaryMesh.C at line 1098
    Cannot find any patch or group names matching motorBikeGroup
    rho: rhoInf
    Freestream density (rhoInf) set to 1
    Not including porosity effects
    magUInf: 20
    lRef   : 1.42
    Aref   : 0.75
    rhoInf : 1
    Selecting all coefficients
    - Drag force: Cd
    - Drag force front: Cd(f)
    - Drag force rear: Cd(r)
    - Lift force: Cl
    - Lift force front: Cl(f)
    - Lift force rear: Cl(r)
    - Pitch moment: CmPitch
    - Roll moment: CmRoll
    - Yaw moment: CmYaw
    - Side force: Cs
    - Side force front: Cs(f)
    - Side force rear: Cs(r)


Time = 1

smoothSolver:  Solving for Ux, Initial residual = 0.496808, Final residual = 0.0181484, No Iterations 2
smoothSolver:  Solving for Uy, Initial residual = 0.605725, Final residual = 0.0543841, No Iterations 2
smoothSolver:  Solving for Uz, Initial residual = 0.467512, Final residual = 0.0189484, No Iterations 3
GAMG:  Solving for p, Initial residual = 1, Final residual = 0.00749825, No Iterations 6
time step continuity errors : sum local = 1.43022e-08, global = 1.62605e-10, cumulative = 1.62605e-10
smoothSolver:  Solving for omega, Initial residual = 0.00958776, Final residual = 0.00019625, No Iterations 2
smoothSolver:  Solving for k, Initial residual = 1, Final residual = 0.0222852, No Iterations 2
ExecutionTime = 0.13 s  ClockTime = 0 s

forceCoeffs forceCoeffs1 write:
    Coefficient	Total	Pressure	Viscous	Internal
    Cd:	0	0	0	0
    Cd(f):	0	0	0	0
    Cd(r):	0	0	0	0
    Cl:	0	0	0	0
    Cl(f):	0	0	0	0
    Cl(r):	0	0	0	0
    CmPitch:	0	0	0	0
    CmRoll:	0	0	0	0
    CmYaw:	0	0	0	0
    Cs:	0	0	0	0
    Cs(f):	0	0	0	0
    Cs(r):	0	0	0	0

    writing force and moment coefficient files.

Time = 2

smoothSolver:  Solving for Ux, Initial residual = 0.364266, Final residual = 0.0164516, No Iterations 2
smoothSolver:  Solving for Uy, Initial residual = 0.63266, Final residual = 0.0507744, No Iterations 2
smoothSolver:  Solving for Uz, Initial residual = 0.790286, Final residual = 0.0717636, No Iterations 2
GAMG:  Solving for p, Initial residual = 0.292761, Final residual = 0.00200202, No Iterations 6
time step continuity errors : sum local = 5.99019e-09, global = -4.71576e-11, cumulative = 1.15447e-10
smoothSolver:  Solving for omega, Initial residual = 0.0088765, Final residual = 0.000169718, No Iterations 2
smoothSolver:  Solving for k, Initial residual = 0.672002, Final residual = 0.0136416, No Iterations 2
ExecutionTime = 0.13 s  ClockTime = 0 s

forceCoeffs forceCoeffs1 write:
    Coefficient	Total	Pressure	Viscous	Internal
    Cd:	0	0	0	0
    Cd(f):	0	0	0	0
    Cd(r):	0	0	0	0
    Cl:	0	0	0	0
    Cl(f):	0	0	0	0
    Cl(r):	0	0	0	0
    CmPitch:	0	0	0	0
    CmRoll:	0	0	0	0
    CmYaw:	0	0	0	0
    Cs:	0	0	0	0
    Cs(f):	0	0	0	0
    Cs(r):	0	0	0	0

    writing force and moment coefficient files.

Time = 3

smoothSolver:  Solving for Ux, Initial residual = 0.532562, Final residual = 0.0197438, No Iterations 2
smoothSolver:  Solving for Uy, Initial residual = 0.635576, Final residual = 0.0399504, No Iterations 2
smoothSolver:  Solving for Uz, Initial residual = 0.570247, Final residual = 0.014338, No Iterations 3
GAMG:  Solving for p, Initial residual = 0.366088, Final residual = 0.0025472, No Iterations 6
time step continuity errors : sum local = 4.12531e-09, global = -7.66045e-11, cumulative = 3.88426e-11
smoothSolver:  Solving for omega, Initial residual = 0.007744, Final residual = 0.00013268, No Iterations 2
smoothSolver:  Solving for k, Initial residual = 0.439068, Final residual = 0.0081971, No Iterations 2
ExecutionTime = 0.13 s  ClockTime = 0 s

forceCoeffs forceCoeffs1 write:
    Coefficient	Total	Pressure	Viscous	Internal
    Cd:	0	0	0	0
    Cd(f):	0	0	0	0
    Cd(r):	0	0	0	0
    Cl:	0	0	0	0
    Cl(f):	0	0	0	0
    Cl(r):	0	0	0	0
    CmPitch:	0	0	0	0
    CmRoll:	0	0	0	0
    CmYaw:	0	0	0	0
    Cs:	0	0	0	0
    Cs(f):	0	0	0	0
    Cs(r):	0	0	0	0

    writing force and moment coefficient files.

Time = 4

smoothSolver:  Solving for Ux, Initial residual = 0.717705, Final residual = 0.0326497, No Iterations 2
smoothSolver:  Solving for Uy, Initial residual = 0.572856, Final residual = 0.0348488, No Iterations 2
smoothSolver:  Solving for Uz, Initial residual = 0.519926, Final residual = 0.0120503, No Iterations 3
GAMG:  Solving for p, Initial residual = 0.339334, Final residual = 0.0025814, No Iterations 6
time step continuity errors : sum local = 2.31666e-09, global = -4.38569e-11, cumulative = -5.01432e-12
smoothSolver:  Solving for omega, Initial residual = 0.00662023, Final residual = 9.83703e-05, No Iterations 2
smoothSolver:  Solving for k, Initial residual = 0.282452, Final residual = 0.00470212, No Iterations 2
ExecutionTime = 0.13 s  ClockTime = 0 s

forceCoeffs forceCoeffs1 write:
    Coefficient	Total	Pressure	Viscous	Internal
    Cd:	0	0	0	0
    Cd(f):	0	0	0	0
    Cd(r):	0	0	0	0
    Cl:	0	0	0	0
    Cl(f):	0	0	0	0
    Cl(r):	0	0	0	0
    CmPitch:	0	0	0	0
    CmRoll:	0	0	0	0
    CmYaw:	0	0	0	0
    Cs:	0	0	0	0
    Cs(f):	0	0	0	0
    Cs(r):	0	0	0	0

    writing force and moment coefficient files.

Time = 5

smoothSolver:  Solving for Ux, Initial residual = 0.681675, Final residual = 0.0397155, No Iterations 2
smoothSolver:  Solving for Uy, Initial residual = 0.514635, Final residual = 0.0310493, No Iterations 2
smoothSolver:  Solving for Uz, Initial residual = 0.572285, Final residual = 0.0143534, No Iterations 3
GAMG:  Solving for p, Initial residual = 0.243129, Final residual = 0.0020059, No Iterations 6
time step continuity errors : sum local = 1.24865e-09, global = -6.73376e-12, cumulative = -1.17481e-11
smoothSolver:  Solving for omega, Initial residual = 0.00552475, Final residual = 6.99479e-05, No Iterations 2
smoothSolver:  Solving for k, Initial residual = 0.184746, Final residual = 0.00269559, No Iterations 2
ExecutionTime = 0.14 s  ClockTime = 0 s

forceCoeffs forceCoeffs1 write:
    Coefficient	Total	Pressure	Viscous	Internal
    Cd:	0	0	0	0
    Cd(f):	0	0	0	0
    Cd(r):	0	0	0	0
    Cl:	0	0	0	0
    Cl(f):	0	0	0	0
    Cl(r):	0	0	0	0
    CmPitch:	0	0	0	0
    CmRoll:	0	0	0	0
    CmYaw:	0	0	0	0
    Cs:	0	0	0	0
    Cs(f):	0	0	0	0
    Cs(r):	0	0	0	0

    writing force and moment coefficient files.

Time = 6

smoothSolver:  Solving for Ux, Initial residual = 0.544973, Final residual = 0.0414285, No Iterations 2
smoothSolver:  Solving for Uy, Initial residual = 0.499793, Final residual = 0.0314343, No Iterations 2
smoothSolver:  Solving for Uz, Initial residual = 0.763818, Final residual = 0.0197774, No Iterations 3
GAMG:  Solving for p, Initial residual = 0.155737, Final residual = 0.00119333, No Iterations 6
time step continuity errors : sum local = 6.20192e-10, global = -5.54245e-12, cumulative = -1.72905e-11
smoothSolver:  Solving for omega, Initial residual = 0.00448615, Final residual = 4.80596e-05, No Iterations 2
smoothSolver:  Solving for k, Initial residual = 0.123746, Final residual = 0.00157009, No Iterations 2
ExecutionTime = 0.15 s  ClockTime = 0 s

forceCoeffs forceCoeffs1 write:
    Coefficient	Total	Pressure	Viscous	Internal
    Cd:	0	0	0	0
    Cd(f):	0	0	0	0
    Cd(r):	0	0	0	0
    Cl:	0	0	0	0
    Cl(f):	0	0	0	0
    Cl(r):	0	0	0	0
    CmPitch:	0	0	0	0
    CmRoll:	0	0	0	0
    CmYaw:	0	0	0	0
    Cs:	0	0	0	0
    Cs(f):	0	0	0	0
    Cs(r):	0	0	0	0

    writing force and moment coefficient files.

Time = 7

smoothSolver:  Solving for Ux, Initial residual = 0.419531, Final residual = 0.0329544, No Iterations 2
smoothSolver:  Solving for Uy, Initial residual = 0.55034, Final residual = 0.0384316, No Iterations 2
smoothSolver:  Solving for Uz, Initial residual = 0.75542, Final residual = 0.0187541, No Iterations 3
GAMG:  Solving for p, Initial residual = 0.121567, Final residual = 0.000567263, No Iterations 6
time step continuity errors : sum local = 2.5371e-10, global = 2.7386e-12, cumulative = -1.45519e-11
smoothSolver:  Solving for omega, Initial residual = 0.00353643, Final residual = 3.20402e-05, No Iterations 2
smoothSolver:  Solving for k, Initial residual = 0.0842543, Final residual = 0.000927411, No Iterations 2
ExecutionTime = 0.15 s  ClockTime = 1 s

forceCoeffs forceCoeffs1 write:
    Coefficient	Total	Pressure	Viscous	Internal
    Cd:	0	0	0	0
    Cd(f):	0	0	0	0
    Cd(r):	0	0	0	0
    Cl:	0	0	0	0
    Cl(f):	0	0	0	0
    Cl(r):	0	0	0	0
    CmPitch:	0	0	0	0
    CmRoll:	0	0	0	0
    CmYaw:	0	0	0	0
    Cs:	0	0	0	0
    Cs(f):	0	0	0	0
    Cs(r):	0	0	0	0

    writing force and moment coefficient files.

Time = 8

smoothSolver:  Solving for Ux, Initial residual = 0.505357, Final residual = 0.0166367, No Iterations 2
smoothSolver:  Solving for Uy, Initial residual = 0.62407, Final residual = 0.0464568, No Iterations 2
smoothSolver:  Solving for Uz, Initial residual = 0.567865, Final residual = 0.0129671, No Iterations 3
GAMG:  Solving for p, Initial residual = 0.118087, Final residual = 0.000730143, No Iterations 5
time step continuity errors : sum local = 2.76925e-10, global = 7.85499e-12, cumulative = -6.69695e-12
smoothSolver:  Solving for omega, Initial residual = 0.00270294, Final residual = 2.07699e-05, No Iterations 2
smoothSolver:  Solving for k, Initial residual = 0.0577851, Final residual = 0.00055208, No Iterations 2
ExecutionTime = 0.16 s  ClockTime = 1 s

forceCoeffs forceCoeffs1 write:
    Coefficient	Total	Pressure	Viscous	Internal
    Cd:	0	0	0	0
    Cd(f):	0	0	0	0
    Cd(r):	0	0	0	0
    Cl:	0	0	0	0
    Cl(f):	0	0	0	0
    Cl(r):	0	0	0	0
    CmPitch:	0	0	0	0
    CmRoll:	0	0	0	0
    CmYaw:	0	0	0	0
    Cs:	0	0	0	0
    Cs(f):	0	0	0	0
    Cs(r):	0	0	0	0

    writing force and moment coefficient files.

Time = 9

smoothSolver:  Solving for Ux, Initial residual = 0.580829, Final residual = 0.0100323, No Iterations 2
smoothSolver:  Solving for Uy, Initial residual = 0.666716, Final residual = 0.0510881, No Iterations 2
smoothSolver:  Solving for Uz, Initial residual = 0.4349, Final residual = 0.00729724, No Iterations 3
GAMG:  Solving for p, Initial residual = 0.115553, Final residual = 0.00065476, No Iterations 5
time step continuity errors : sum local = 2.09704e-10, global = 8.68532e-12, cumulative = 1.98836e-12
smoothSolver:  Solving for omega, Initial residual = 0.00200221, Final residual = 1.3107e-05, No Iterations 2
smoothSolver:  Solving for k, Initial residual = 0.0395753, Final residual = 0.00032882, No Iterations 2
ExecutionTime = 0.16 s  ClockTime = 1 s

forceCoeffs forceCoeffs1 write:
    Coefficient	Total	Pressure	Viscous	Internal
    Cd:	0	0	0	0
    Cd(f):	0	0	0	0
    Cd(r):	0	0	0	0
    Cl:	0	0	0	0
    Cl(f):	0	0	0	0
    Cl(r):	0	0	0	0
    CmPitch:	0	0	0	0
    CmRoll:	0	0	0	0
    CmYaw:	0	0	0	0
    Cs:	0	0	0	0
    Cs(f):	0	0	0	0
    Cs(r):	0	0	0	0

    writing force and moment coefficient files.

Time = 10

smoothSolver:  Solving for Ux, Initial residual = 0.600893, Final residual = 0.0119342, No Iterations 2
smoothSolver:  Solving for Uy, Initial residual = 0.65292, Final residual = 0.0497065, No Iterations 2
smoothSolver:  Solving for Uz, Initial residual = 0.474024, Final residual = 0.0326458, No Iterations 2
GAMG:  Solving for p, Initial residual = 0.108598, Final residual = 0.000638215, No Iterations 5
time step continuity errors : sum local = 1.7479e-10, global = 7.60213e-12, cumulative = 9.5905e-12
smoothSolver:  Solving for omega, Initial residual = 0.00143782, Final residual = 8.0594e-06, No Iterations 2
smoothSolver:  Solving for k, Initial residual = 0.0268831, Final residual = 0.000194779, No Iterations 2
ExecutionTime = 0.16 s  ClockTime = 1 s

forceCoeffs forceCoeffs1 write:
    Coefficient	Total	Pressure	Viscous	Internal
    Cd:	0	0	0	0
    Cd(f):	0	0	0	0
    Cd(r):	0	0	0	0
    Cl:	0	0	0	0
    Cl(f):	0	0	0	0
    Cl(r):	0	0	0	0
    CmPitch:	0	0	0	0
    CmRoll:	0	0	0	0
    CmYaw:	0	0	0	0
    Cs:	0	0	0	0
    Cs(f):	0	0	0	0
    Cs(r):	0	0	0	0

    writing force and moment coefficient files.

Time = 11

smoothSolver:  Solving for Ux, Initial residual = 0.612457, Final residual = 0.017584, No Iterations 2
smoothSolver:  Solving for Uy, Initial residual = 0.623915, Final residual = 0.0446169, No Iterations 2
smoothSolver:  Solving for Uz, Initial residual = 0.531981, Final residual = 0.0256282, No Iterations 2
GAMG:  Solving for p, Initial residual = 0.0960579, Final residual = 0.000602512, No Iterations 5
time step continuity errors : sum local = 1.44689e-10, global = 5.51526e-12, cumulative = 1.51058e-11
smoothSolver:  Solving for omega, Initial residual = 0.00100171, Final residual = 4.83374e-06, No Iterations 2
smoothSolver:  Solving for k, Initial residual = 0.0180401, Final residual = 0.000114354, No Iterations 2
ExecutionTime = 0.16 s  ClockTime = 1 s

forceCoeffs forceCoeffs1 write:
    Coefficient	Total	Pressure	Viscous	Internal
    Cd:	0	0	0	0
    Cd(f):	0	0	0	0
    Cd(r):	0	0	0	0
    Cl:	0	0	0	0
    Cl(f):	0	0	0	0
    Cl(r):	0	0	0	0
    CmPitch:	0	0	0	0
    CmRoll:	0	0	0	0
    CmYaw:	0	0	0	0
    Cs:	0	0	0	0
    Cs(f):	0	0	0	0
    Cs(r):	0	0	0	0

    writing force and moment coefficient files.

Time = 12

smoothSolver:  Solving for Ux, Initial residual = 0.662229, Final residual = 0.0238621, No Iterations 2
smoothSolver:  Solving for Uy, Initial residual = 0.601497, Final residual = 0.0387357, No Iterations 2
smoothSolver:  Solving for Uz, Initial residual = 0.580598, Final residual = 0.0239867, No Iterations 2
GAMG:  Solving for p, Initial residual = 0.0883104, Final residual = 0.000518473, No Iterations 5
time step continuity errors : sum local = 1.11991e-10, global = 3.9206e-12, cumulative = 1.90264e-11
smoothSolver:  Solving for omega, Initial residual = 0.000677747, Final residual = 6.37737e-05, No Iterations 1
smoothSolver:  Solving for k, Initial residual = 0.0119306, Final residual = 6.63938e-05, No Iterations 2
ExecutionTime = 0.17 s  ClockTime = 1 s

forceCoeffs forceCoeffs1 write:
    Coefficient	Total	Pressure	Viscous	Internal
    Cd:	0	0	0	0
    Cd(f):	0	0	0	0
    Cd(r):	0	0	0	0
    Cl:	0	0	0	0
    Cl(f):	0	0	0	0
    Cl(r):	0	0	0	0
    CmPitch:	0	0	0	0
    CmRoll:	0	0	0	0
    CmYaw:	0	0	0	0
    Cs:	0	0	0	0
    Cs(f):	0	0	0	0
    Cs(r):	0	0	0	0

    writing force and moment coefficient files.

Time = 13

smoothSolver:  Solving for Ux, Initial residual = 0.733245, Final residual = 0.0285783, No Iterations 2
smoothSolver:  Solving for Uy, Initial residual = 0.596616, Final residual = 0.033279, No Iterations 2
smoothSolver:  Solving for Uz, Initial residual = 0.635606, Final residual = 0.0246721, No Iterations 2
GAMG:  Solving for p, Initial residual = 0.0849308, Final residual = 0.000395366, No Iterations 5
time step continuity errors : sum local = 7.80284e-11, global = 2.21554e-12, cumulative = 2.12419e-11
smoothSolver:  Solving for omega, Initial residual = 0.000459488, Final residual = 3.82695e-05, No Iterations 1
smoothSolver:  Solving for k, Initial residual = 0.00774689, Final residual = 0.000716016, No Iterations 1
ExecutionTime = 0.17 s  ClockTime = 1 s

forceCoeffs forceCoeffs1 write:
    Coefficient	Total	Pressure	Viscous	Internal
    Cd:	0	0	0	0
    Cd(f):	0	0	0	0
    Cd(r):	0	0	0	0
    Cl:	0	0	0	0
    Cl(f):	0	0	0	0
    Cl(r):	0	0	0	0
    CmPitch:	0	0	0	0
    CmRoll:	0	0	0	0
    CmYaw:	0	0	0	0
    Cs:	0	0	0	0
    Cs(f):	0	0	0	0
    Cs(r):	0	0	0	0

    writing force and moment coefficient files.

Time = 14

smoothSolver:  Solving for Ux, Initial residual = 0.778365, Final residual = 0.030108, No Iterations 2
smoothSolver:  Solving for Uy, Initial residual = 0.603429, Final residual = 0.0280332, No Iterations 2
smoothSolver:  Solving for Uz, Initial residual = 0.696732, Final residual = 0.0247307, No Iterations 2
GAMG:  Solving for p, Initial residual = 0.0817921, Final residual = 0.000508629, No Iterations 4
time step continuity errors : sum local = 9.25014e-11, global = -1.8384e-12, cumulative = 1.94035e-11
smoothSolver:  Solving for omega, Initial residual = 0.000306467, Final residual = 2.28596e-05, No Iterations 1
smoothSolver:  Solving for k, Initial residual = 0.0050889, Final residual = 0.000421954, No Iterations 1
ExecutionTime = 0.17 s  ClockTime = 1 s

forceCoeffs forceCoeffs1 write:
    Coefficient	Total	Pressure	Viscous	Internal
    Cd:	0	0	0	0
    Cd(f):	0	0	0	0
    Cd(r):	0	0	0	0
    Cl:	0	0	0	0
    Cl(f):	0	0	0	0
    Cl(r):	0	0	0	0
    CmPitch:	0	0	0	0
    CmRoll:	0	0	0	0
    CmYaw:	0	0	0	0
    Cs:	0	0	0	0
    Cs(f):	0	0	0	0
    Cs(r):	0	0	0	0

    writing force and moment coefficient files.

Time = 15

smoothSolver:  Solving for Ux, Initial residual = 0.796392, Final residual = 0.0293682, No Iterations 2
smoothSolver:  Solving for Uy, Initial residual = 0.615756, Final residual = 0.0231208, No Iterations 2
smoothSolver:  Solving for Uz, Initial residual = 0.750178, Final residual = 0.0241004, No Iterations 2
GAMG:  Solving for p, Initial residual = 0.0784447, Final residual = 0.000380441, No Iterations 4
time step continuity errors : sum local = 6.37471e-11, global = -4.82115e-12, cumulative = 1.45823e-11
smoothSolver:  Solving for omega, Initial residual = 0.000202267, Final residual = 1.36212e-05, No Iterations 1
smoothSolver:  Solving for k, Initial residual = 0.00331239, Final residual = 0.00024999, No Iterations 1
ExecutionTime = 0.17 s  ClockTime = 1 s

forceCoeffs forceCoeffs1 write:
    Coefficient	Total	Pressure	Viscous	Internal
    Cd:	0	0	0	0
    Cd(f):	0	0	0	0
    Cd(r):	0	0	0	0
    Cl:	0	0	0	0
    Cl(f):	0	0	0	0
    Cl(r):	0	0	0	0
    CmPitch:	0	0	0	0
    CmRoll:	0	0	0	0
    CmYaw:	0	0	0	0
    Cs:	0	0	0	0
    Cs(f):	0	0	0	0
    Cs(r):	0	0	0	0

    writing force and moment coefficient files.

Time = 16

smoothSolver:  Solving for Ux, Initial residual = 0.790309, Final residual = 0.0273526, No Iterations 2
smoothSolver:  Solving for Uy, Initial residual = 0.630249, Final residual = 0.0185872, No Iterations 2
smoothSolver:  Solving for Uz, Initial residual = 0.794343, Final residual = 0.0232085, No Iterations 2
GAMG:  Solving for p, Initial residual = 0.0759106, Final residual = 0.000457823, No Iterations 4
time step continuity errors : sum local = 7.03142e-11, global = -5.44446e-12, cumulative = 9.13788e-12
smoothSolver:  Solving for omega, Initial residual = 0.000132015, Final residual = 8.091e-06, No Iterations 1
smoothSolver:  Solving for k, Initial residual = 0.002142, Final residual = 0.000148224, No Iterations 1
ExecutionTime = 0.18 s  ClockTime = 1 s

forceCoeffs forceCoeffs1 write:
    Coefficient	Total	Pressure	Viscous	Internal
    Cd:	0	0	0	0
    Cd(f):	0	0	0	0
    Cd(r):	0	0	0	0
    Cl:	0	0	0	0
    Cl(f):	0	0	0	0
    Cl(r):	0	0	0	0
    CmPitch:	0	0	0	0
    CmRoll:	0	0	0	0
    CmYaw:	0	0	0	0
    Cs:	0	0	0	0
    Cs(f):	0	0	0	0
    Cs(r):	0	0	0	0

    writing force and moment coefficient files.

Time = 17

smoothSolver:  Solving for Ux, Initial residual = 0.78255, Final residual = 0.0244079, No Iterations 2
smoothSolver:  Solving for Uy, Initial residual = 0.646887, Final residual = 0.0156885, No Iterations 2
smoothSolver:  Solving for Uz, Initial residual = 0.805615, Final residual = 0.0243546, No Iterations 2
GAMG:  Solving for p, Initial residual = 0.0747217, Final residual = 0.000540942, No Iterations 4
time step continuity errors : sum local = 7.59518e-11, global = -5.54041e-12, cumulative = 3.59747e-12
smoothSolver:  Solving for omega, Initial residual = 8.49351e-05, Final residual = 4.77938e-06, No Iterations 1
smoothSolver:  Solving for k, Initial residual = 0.00137404, Final residual = 8.76746e-05, No Iterations 1
ExecutionTime = 0.18 s  ClockTime = 1 s

forceCoeffs forceCoeffs1 write:
    Coefficient	Total	Pressure	Viscous	Internal
    Cd:	0	0	0	0
    Cd(f):	0	0	0	0
    Cd(r):	0	0	0	0
    Cl:	0	0	0	0
    Cl(f):	0	0	0	0
    Cl(r):	0	0	0	0
    CmPitch:	0	0	0	0
    CmRoll:	0	0	0	0
    CmYaw:	0	0	0	0
    Cs:	0	0	0	0
    Cs(f):	0	0	0	0
    Cs(r):	0	0	0	0

    writing force and moment coefficient files.

Time = 18

smoothSolver:  Solving for Ux, Initial residual = 0.786618, Final residual = 0.0211216, No Iterations 2
smoothSolver:  Solving for Uy, Initial residual = 0.664577, Final residual = 0.015405, No Iterations 2
smoothSolver:  Solving for Uz, Initial residual = 0.78589, Final residual = 0.0246576, No Iterations 2
GAMG:  Solving for p, Initial residual = 0.0742777, Final residual = 0.000593359, No Iterations 4
time step continuity errors : sum local = 7.59663e-11, global = -5.21444e-12, cumulative = -1.61697e-12
smoothSolver:  Solving for omega, Initial residual = 5.36903e-05, Final residual = 2.79874e-06, No Iterations 1
smoothSolver:  Solving for k, Initial residual = 0.000871255, Final residual = 5.15816e-05, No Iterations 1
ExecutionTime = 0.18 s  ClockTime = 1 s

forceCoeffs forceCoeffs1 write:
    Coefficient	Total	Pressure	Viscous	Internal
    Cd:	0	0	0	0
    Cd(f):	0	0	0	0
    Cd(r):	0	0	0	0
    Cl:	0	0	0	0
    Cl(f):	0	0	0	0
    Cl(r):	0	0	0	0
    CmPitch:	0	0	0	0
    CmRoll:	0	0	0	0
    CmYaw:	0	0	0	0
    Cs:	0	0	0	0
    Cs(f):	0	0	0	0
    Cs(r):	0	0	0	0

    writing force and moment coefficient files.

Time = 19

smoothSolver:  Solving for Ux, Initial residual = 0.798206, Final residual = 0.0179735, No Iterations 2
smoothSolver:  Solving for Uy, Initial residual = 0.677947, Final residual = 0.0162202, No Iterations 2
smoothSolver:  Solving for Uz, Initial residual = 0.739408, Final residual = 0.0231753, No Iterations 2
GAMG:  Solving for p, Initial residual = 0.0749515, Final residual = 0.000610815, No Iterations 4
time step continuity errors : sum local = 7.11846e-11, global = -4.58101e-12, cumulative = -6.19798e-12
smoothSolver:  Solving for omega, Initial residual = 3.32761e-05, Final residual = 1.62037e-06, No Iterations 1
smoothSolver:  Solving for k, Initial residual = 0.000544192, Final residual = 3.01024e-05, No Iterations 1
ExecutionTime = 0.19 s  ClockTime = 1 s

forceCoeffs forceCoeffs1 write:
    Coefficient	Total	Pressure	Viscous	Internal
    Cd:	0	0	0	0
    Cd(f):	0	0	0	0
    Cd(r):	0	0	0	0
    Cl:	0	0	0	0
    Cl(f):	0	0	0	0
    Cl(r):	0	0	0	0
    CmPitch:	0	0	0	0
    CmRoll:	0	0	0	0
    CmYaw:	0	0	0	0
    Cs:	0	0	0	0
    Cs(f):	0	0	0	0
    Cs(r):	0	0	0	0

    writing force and moment coefficient files.

Time = 20

smoothSolver:  Solving for Ux, Initial residual = 0.810937, Final residual = 0.0151613, No Iterations 2
smoothSolver:  Solving for Uy, Initial residual = 0.684532, Final residual = 0.0173146, No Iterations 2
smoothSolver:  Solving for Uz, Initial residual = 0.660901, Final residual = 0.0201724, No Iterations 2
GAMG:  Solving for p, Initial residual = 0.0766903, Final residual = 0.000599656, No Iterations 4
time step continuity errors : sum local = 6.32692e-11, global = -3.77904e-12, cumulative = -9.97702e-12
smoothSolver:  Solving for omega, Initial residual = 2.02047e-05, Final residual = 9.25935e-07, No Iterations 1
smoothSolver:  Solving for k, Initial residual = 0.00033404, Final residual = 1.73889e-05, No Iterations 1
ExecutionTime = 0.19 s  ClockTime = 1 s

forceCoeffs forceCoeffs1 write:
    Coefficient	Total	Pressure	Viscous	Internal
    Cd:	0	0	0	0
    Cd(f):	0	0	0	0
    Cd(r):	0	0	0	0
    Cl:	0	0	0	0
    Cl(f):	0	0	0	0
    Cl(r):	0	0	0	0
    CmPitch:	0	0	0	0
    CmRoll:	0	0	0	0
    CmYaw:	0	0	0	0
    Cs:	0	0	0	0
    Cs(f):	0	0	0	0
    Cs(r):	0	0	0	0

    writing force and moment coefficient files.

Time = 21

smoothSolver:  Solving for Ux, Initial residual = 0.814546, Final residual = 0.0126267, No Iterations 2
smoothSolver:  Solving for Uy, Initial residual = 0.684902, Final residual = 0.0180691, No Iterations 2
smoothSolver:  Solving for Uz, Initial residual = 0.589157, Final residual = 0.0172043, No Iterations 2
GAMG:  Solving for p, Initial residual = 0.0786375, Final residual = 0.000564268, No Iterations 4
time step continuity errors : sum local = 5.3669e-11, global = -2.7547e-12, cumulative = -1.27317e-11
smoothSolver:  Solving for omega, Initial residual = 1.20215e-05, Final residual = 5.21829e-07, No Iterations 1
smoothSolver:  Solving for k, Initial residual = 0.00020129, Final residual = 9.92917e-06, No Iterations 1
ExecutionTime = 0.19 s  ClockTime = 1 s

forceCoeffs forceCoeffs1 write:
    Coefficient	Total	Pressure	Viscous	Internal
    Cd:	0	0	0	0
    Cd(f):	0	0	0	0
    Cd(r):	0	0	0	0
    Cl:	0	0	0	0
    Cl(f):	0	0	0	0
    Cl(r):	0	0	0	0
    CmPitch:	0	0	0	0
    CmRoll:	0	0	0	0
    CmYaw:	0	0	0	0
    Cs:	0	0	0	0
    Cs(f):	0	0	0	0
    Cs(r):	0	0	0	0

    writing force and moment coefficient files.

Time = 22

smoothSolver:  Solving for Ux, Initial residual = 0.81562, Final residual = 0.0103778, No Iterations 2
smoothSolver:  Solving for Uy, Initial residual = 0.674667, Final residual = 0.0182255, No Iterations 2
smoothSolver:  Solving for Uz, Initial residual = 0.538104, Final residual = 0.0145946, No Iterations 2
GAMG:  Solving for p, Initial residual = 0.0804555, Final residual = 0.000500215, No Iterations 4
time step continuity errors : sum local = 4.29179e-11, global = -1.67326e-12, cumulative = -1.4405e-11
smoothSolver:  Solving for omega, Initial residual = 7.01485e-06, Final residual = 2.90019e-07, No Iterations 1
smoothSolver:  Solving for k, Initial residual = 0.000119073, Final residual = 5.60068e-06, No Iterations 1
ExecutionTime = 0.19 s  ClockTime = 1 s

forceCoeffs forceCoeffs1 write:
    Coefficient	Total	Pressure	Viscous	Internal
    Cd:	0	0	0	0
    Cd(f):	0	0	0	0
    Cd(r):	0	0	0	0
    Cl:	0	0	0	0
    Cl(f):	0	0	0	0
    Cl(r):	0	0	0	0
    CmPitch:	0	0	0	0
    CmRoll:	0	0	0	0
    CmYaw:	0	0	0	0
    Cs:	0	0	0	0
    Cs(f):	0	0	0	0
    Cs(r):	0	0	0	0

    writing force and moment coefficient files.

Time = 23

smoothSolver:  Solving for Ux, Initial residual = 0.819019, Final residual = 0.008377, No Iterations 2
smoothSolver:  Solving for Uy, Initial residual = 0.663044, Final residual = 0.01818, No Iterations 2
smoothSolver:  Solving for Uz, Initial residual = 0.503919, Final residual = 0.0124566, No Iterations 2
GAMG:  Solving for p, Initial residual = 0.0813306, Final residual = 0.000404149, No Iterations 4
time step continuity errors : sum local = 3.13884e-11, global = -1.03781e-12, cumulative = -1.54428e-11
smoothSolver:  Solving for omega, Initial residual = 4.01916e-06, Final residual = 1.59014e-07, No Iterations 1
smoothSolver:  Solving for k, Initial residual = 6.91899e-05, Final residual = 3.1204e-06, No Iterations 1
ExecutionTime = 0.2 s  ClockTime = 1 s

forceCoeffs forceCoeffs1 write:
    Coefficient	Total	Pressure	Viscous	Internal
    Cd:	0	0	0	0
    Cd(f):	0	0	0	0
    Cd(r):	0	0	0	0
    Cl:	0	0	0	0
    Cl(f):	0	0	0	0
    Cl(r):	0	0	0	0
    CmPitch:	0	0	0	0
    CmRoll:	0	0	0	0
    CmYaw:	0	0	0	0
    Cs:	0	0	0	0
    Cs(f):	0	0	0	0
    Cs(r):	0	0	0	0

    writing force and moment coefficient files.

Time = 24

smoothSolver:  Solving for Ux, Initial residual = 0.82237, Final residual = 0.0712325, No Iterations 1
smoothSolver:  Solving for Uy, Initial residual = 0.649117, Final residual = 0.0180065, No Iterations 2
smoothSolver:  Solving for Uz, Initial residual = 0.482849, Final residual = 0.0106742, No Iterations 2
GAMG:  Solving for p, Initial residual = 0.0831824, Final residual = 0.000790291, No Iterations 3
time step continuity errors : sum local = 5.56212e-11, global = 2.22601e-12, cumulative = -1.32168e-11
smoothSolver:  Solving for omega, Initial residual = 2.26383e-06, Final residual = 8.60603e-08, No Iterations 1
smoothSolver:  Solving for k, Initial residual = 3.95318e-05, Final residual = 1.71764e-06, No Iterations 1
ExecutionTime = 0.2 s  ClockTime = 1 s

forceCoeffs forceCoeffs1 write:
    Coefficient	Total	Pressure	Viscous	Internal
    Cd:	0	0	0	0
    Cd(f):	0	0	0	0
    Cd(r):	0	0	0	0
    Cl:	0	0	0	0
    Cl(f):	0	0	0	0
    Cl(r):	0	0	0	0
    CmPitch:	0	0	0	0
    CmRoll:	0	0	0	0
    CmYaw:	0	0	0	0
    Cs:	0	0	0	0
    Cs(f):	0	0	0	0
    Cs(r):	0	0	0	0

    writing force and moment coefficient files.

Time = 25

smoothSolver:  Solving for Ux, Initial residual = 0.806067, Final residual = 0.0690073, No Iterations 1
smoothSolver:  Solving for Uy, Initial residual = 0.676272, Final residual = 0.0197315, No Iterations 2
smoothSolver:  Solving for Uz, Initial residual = 0.491643, Final residual = 0.0095534, No Iterations 2
GAMG:  Solving for p, Initial residual = 0.0819847, Final residual = 0.000644427, No Iterations 3
time step continuity errors : sum local = 4.10452e-11, global = 3.39211e-12, cumulative = -9.82466e-12
smoothSolver:  Solving for omega, Initial residual = 1.25505e-06, Final residual = 4.60057e-08, No Iterations 1
smoothSolver:  Solving for k, Initial residual = 2.22336e-05, Final residual = 9.34557e-07, No Iterations 1
ExecutionTime = 0.2 s  ClockTime = 1 s

forceCoeffs forceCoeffs1 write:
    Coefficient	Total	Pressure	Viscous	Internal
    Cd:	0	0	0	0
    Cd(f):	0	0	0	0
    Cd(r):	0	0	0	0
    Cl:	0	0	0	0
    Cl(f):	0	0	0	0
    Cl(r):	0	0	0	0
    CmPitch:	0	0	0	0
    CmRoll:	0	0	0	0
    CmYaw:	0	0	0	0
    Cs:	0	0	0	0
    Cs(f):	0	0	0	0
    Cs(r):	0	0	0	0

    writing force and moment coefficient files.

Time = 26

smoothSolver:  Solving for Ux, Initial residual = 0.796407, Final residual = 0.0681456, No Iterations 1
smoothSolver:  Solving for Uy, Initial residual = 0.667019, Final residual = 0.0188691, No Iterations 2
smoothSolver:  Solving for Uz, Initial residual = 0.493139, Final residual = 0.00844298, No Iterations 2
GAMG:  Solving for p, Initial residual = 0.0793806, Final residual = 0.000587956, No Iterations 3
time step continuity errors : sum local = 3.41231e-11, global = 3.87769e-12, cumulative = -5.94697e-12
smoothSolver:  Solving for omega, Initial residual = 6.85571e-07, Final residual = 2.43071e-08, No Iterations 1
smoothSolver:  Solving for k, Initial residual = 1.23231e-05, Final residual = 5.02882e-07, No Iterations 1
ExecutionTime = 0.21 s  ClockTime = 1 s

forceCoeffs forceCoeffs1 write:
    Coefficient	Total	Pressure	Viscous	Internal
    Cd:	0	0	0	0
    Cd(f):	0	0	0	0
    Cd(r):	0	0	0	0
    Cl:	0	0	0	0
    Cl(f):	0	0	0	0
    Cl(r):	0	0	0	0
    CmPitch:	0	0	0	0
    CmRoll:	0	0	0	0
    CmYaw:	0	0	0	0
    Cs:	0	0	0	0
    Cs(f):	0	0	0	0
    Cs(r):	0	0	0	0

    writing force and moment coefficient files.

Time = 27

smoothSolver:  Solving for Ux, Initial residual = 0.787533, Final residual = 0.0723043, No Iterations 1
smoothSolver:  Solving for Uy, Initial residual = 0.644904, Final residual = 0.0170852, No Iterations 2
smoothSolver:  Solving for Uz, Initial residual = 0.497252, Final residual = 0.00740968, No Iterations 2
GAMG:  Solving for p, Initial residual = 0.0756683, Final residual = 0.00069561, No Iterations 3
time step continuity errors : sum local = 3.70623e-11, global = 3.74706e-12, cumulative = -2.19991e-12
smoothSolver:  Solving for omega, Initial residual = 3.69342e-07, Final residual = 1.27001e-08, No Iterations 1
smoothSolver:  Solving for k, Initial residual = 6.73799e-06, Final residual = 2.67764e-07, No Iterations 1
ExecutionTime = 0.21 s  ClockTime = 1 s

forceCoeffs forceCoeffs1 write:
    Coefficient	Total	Pressure	Viscous	Internal
    Cd:	0	0	0	0
    Cd(f):	0	0	0	0
    Cd(r):	0	0	0	0
    Cl:	0	0	0	0
    Cl(f):	0	0	0	0
    Cl(r):	0	0	0	0
    CmPitch:	0	0	0	0
    CmRoll:	0	0	0	0
    CmYaw:	0	0	0	0
    Cs:	0	0	0	0
    Cs(f):	0	0	0	0
    Cs(r):	0	0	0	0

    writing force and moment coefficient files.

Time = 28

smoothSolver:  Solving for Ux, Initial residual = 0.778233, Final residual = 0.00975267, No Iterations 2
smoothSolver:  Solving for Uy, Initial residual = 0.637602, Final residual = 0.0155431, No Iterations 2
smoothSolver:  Solving for Uz, Initial residual = 0.515904, Final residual = 0.00657862, No Iterations 2
GAMG:  Solving for p, Initial residual = 0.072435, Final residual = 0.000259721, No Iterations 4
time step continuity errors : sum local = 1.2771e-11, global = 9.46861e-13, cumulative = -1.25305e-12
smoothSolver:  Solving for omega, Initial residual = 1.96401e-07, Final residual = 6.56526e-09, No Iterations 1
smoothSolver:  Solving for k, Initial residual = 3.63781e-06, Final residual = 1.41152e-07, No Iterations 1
ExecutionTime = 0.21 s  ClockTime = 1 s

forceCoeffs forceCoeffs1 write:
    Coefficient	Total	Pressure	Viscous	Internal
    Cd:	0	0	0	0
    Cd(f):	0	0	0	0
    Cd(r):	0	0	0	0
    Cl:	0	0	0	0
    Cl(f):	0	0	0	0
    Cl(r):	0	0	0	0
    CmPitch:	0	0	0	0
    CmRoll:	0	0	0	0
    CmYaw:	0	0	0	0
    Cs:	0	0	0	0
    Cs(f):	0	0	0	0
    Cs(r):	0	0	0	0

    writing force and moment coefficient files.

Time = 29

smoothSolver:  Solving for Ux, Initial residual = 0.737794, Final residual = 0.0097283, No Iterations 2
smoothSolver:  Solving for Uy, Initial residual = 0.642318, Final residual = 0.0131652, No Iterations 2
smoothSolver:  Solving for Uz, Initial residual = 0.565305, Final residual = 0.00655243, No Iterations 2
GAMG:  Solving for p, Initial residual = 0.0686805, Final residual = 0.000320426, No Iterations 4
time step continuity errors : sum local = 1.45654e-11, global = 9.25311e-13, cumulative = -3.27737e-13
smoothSolver:  Solving for omega, Initial residual = 1.03157e-07, Final residual = 3.35927e-09, No Iterations 1
smoothSolver:  Solving for k, Initial residual = 1.94089e-06, Final residual = 7.37007e-08, No Iterations 1
ExecutionTime = 0.21 s  ClockTime = 1 s

forceCoeffs forceCoeffs1 write:
    Coefficient	Total	Pressure	Viscous	Internal
    Cd:	0	0	0	0
    Cd(f):	0	0	0	0
    Cd(r):	0	0	0	0
    Cl:	0	0	0	0
    Cl(f):	0	0	0	0
    Cl(r):	0	0	0	0
    CmPitch:	0	0	0	0
    CmRoll:	0	0	0	0
    CmYaw:	0	0	0	0
    Cs:	0	0	0	0
    Cs(f):	0	0	0	0
    Cs(r):	0	0	0	0

    writing force and moment coefficient files.

Time = 30

smoothSolver:  Solving for Ux, Initial residual = 0.713414, Final residual = 0.0102986, No Iterations 2
smoothSolver:  Solving for Uy, Initial residual = 0.67026, Final residual = 0.0127034, No Iterations 2
smoothSolver:  Solving for Uz, Initial residual = 0.587974, Final residual = 0.00640399, No Iterations 2
GAMG:  Solving for p, Initial residual = 0.0654589, Final residual = 0.000373056, No Iterations 4
time step continuity errors : sum local = 1.56937e-11, global = 8.84761e-13, cumulative = 5.57024e-13
smoothSolver:  Solving for omega, Initial residual = 5.35496e-08, Final residual = 1.70193e-09, No Iterations 1
smoothSolver:  Solving for k, Initial residual = 1.02405e-06, Final residual = 3.81316e-08, No Iterations 1
ExecutionTime = 0.21 s  ClockTime = 1 s

forceCoeffs forceCoeffs1 write:
    Coefficient	Total	Pressure	Viscous	Internal
    Cd:	0	0	0	0
    Cd(f):	0	0	0	0
    Cd(r):	0	0	0	0
    Cl:	0	0	0	0
    Cl(f):	0	0	0	0
    Cl(r):	0	0	0	0
    CmPitch:	0	0	0	0
    CmRoll:	0	0	0	0
    CmYaw:	0	0	0	0
    Cs:	0	0	0	0
    Cs(f):	0	0	0	0
    Cs(r):	0	0	0	0

    writing force and moment coefficient files.

Time = 31

smoothSolver:  Solving for Ux, Initial residual = 0.699591, Final residual = 0.0110703, No Iterations 2
smoothSolver:  Solving for Uy, Initial residual = 0.704903, Final residual = 0.0125618, No Iterations 2
smoothSolver:  Solving for Uz, Initial residual = 0.623362, Final residual = 0.00643098, No Iterations 2
GAMG:  Solving for p, Initial residual = 0.0625636, Final residual = 0.000413361, No Iterations 4
time step continuity errors : sum local = 1.61627e-11, global = 7.92677e-13, cumulative = 1.3497e-12
smoothSolver:  Solving for omega, Initial residual = 2.74882e-08, Final residual = 8.54038e-10, No Iterations 1
smoothSolver:  Solving for k, Initial residual = 5.34635e-07, Final residual = 1.95559e-08, No Iterations 1
ExecutionTime = 0.22 s  ClockTime = 1 s

forceCoeffs forceCoeffs1 write:
    Coefficient	Total	Pressure	Viscous	Internal
    Cd:	0	0	0	0
    Cd(f):	0	0	0	0
    Cd(r):	0	0	0	0
    Cl:	0	0	0	0
    Cl(f):	0	0	0	0
    Cl(r):	0	0	0	0
    CmPitch:	0	0	0	0
    CmRoll:	0	0	0	0
    CmYaw:	0	0	0	0
    Cs:	0	0	0	0
    Cs(f):	0	0	0	0
    Cs(r):	0	0	0	0

    writing force and moment coefficient files.

Time = 32

smoothSolver:  Solving for Ux, Initial residual = 0.695364, Final residual = 0.0117459, No Iterations 2
smoothSolver:  Solving for Uy, Initial residual = 0.734112, Final residual = 0.012144, No Iterations 2
smoothSolver:  Solving for Uz, Initial residual = 0.680339, Final residual = 0.00666889, No Iterations 2
GAMG:  Solving for p, Initial residual = 0.0602582, Final residual = 0.000435988, No Iterations 4
time step continuity errors : sum local = 1.58955e-11, global = 6.82094e-13, cumulative = 2.0318e-12
smoothSolver:  Solving for omega, Initial residual = 1.39596e-08, Final residual = 4.24596e-10, No Iterations 1
smoothSolver:  Solving for k, Initial residual = 2.76338e-07, Final residual = 9.94462e-09, No Iterations 1
ExecutionTime = 0.22 s  ClockTime = 1 s

forceCoeffs forceCoeffs1 write:
    Coefficient	Total	Pressure	Viscous	Internal
    Cd:	0	0	0	0
    Cd(f):	0	0	0	0
    Cd(r):	0	0	0	0
    Cl:	0	0	0	0
    Cl(f):	0	0	0	0
    Cl(r):	0	0	0	0
    CmPitch:	0	0	0	0
    CmRoll:	0	0	0	0
    CmYaw:	0	0	0	0
    Cs:	0	0	0	0
    Cs(f):	0	0	0	0
    Cs(r):	0	0	0	0

    writing force and moment coefficient files.

Time = 33

smoothSolver:  Solving for Ux, Initial residual = 0.710936, Final residual = 0.0123486, No Iterations 2
smoothSolver:  Solving for Uy, Initial residual = 0.75224, Final residual = 0.0114317, No Iterations 2
smoothSolver:  Solving for Uz, Initial residual = 0.742703, Final residual = 0.0737297, No Iterations 1
GAMG:  Solving for p, Initial residual = 0.0597491, Final residual = 0.000462193, No Iterations 4
time step continuity errors : sum local = 1.56576e-11, global = 5.02974e-13, cumulative = 2.53477e-12
smoothSolver:  Solving for omega, Initial residual = 7.01634e-09, Final residual = 7.01634e-09, No Iterations 0
smoothSolver:  Solving for k, Initial residual = 1.42026e-07, Final residual = 5.03461e-09, No Iterations 1
ExecutionTime = 0.22 s  ClockTime = 1 s

forceCoeffs forceCoeffs1 write:
    Coefficient	Total	Pressure	Viscous	Internal
    Cd:	0	0	0	0
    Cd(f):	0	0	0	0
    Cd(r):	0	0	0	0
    Cl:	0	0	0	0
    Cl(f):	0	0	0	0
    Cl(r):	0	0	0	0
    CmPitch:	0	0	0	0
    CmRoll:	0	0	0	0
    CmYaw:	0	0	0	0
    Cs:	0	0	0	0
    Cs(f):	0	0	0	0
    Cs(r):	0	0	0	0

    writing force and moment coefficient files.

Time = 34

smoothSolver:  Solving for Ux, Initial residual = 0.729144, Final residual = 0.012788, No Iterations 2
smoothSolver:  Solving for Uy, Initial residual = 0.771669, Final residual = 0.00987054, No Iterations 2
smoothSolver:  Solving for Uz, Initial residual = 0.76773, Final residual = 0.0714057, No Iterations 1
GAMG:  Solving for p, Initial residual = 0.0593882, Final residual = 0.000445001, No Iterations 4
time step continuity errors : sum local = 1.394e-11, global = 3.12168e-13, cumulative = 2.84694e-12
smoothSolver:  Solving for omega, Initial residual = 7.02601e-09, Final residual = 7.02601e-09, No Iterations 0
smoothSolver:  Solving for k, Initial residual = 7.23195e-08, Final residual = 2.52816e-09, No Iterations 1
ExecutionTime = 0.22 s  ClockTime = 1 s

forceCoeffs forceCoeffs1 write:
    Coefficient	Total	Pressure	Viscous	Internal
    Cd:	0	0	0	0
    Cd(f):	0	0	0	0
    Cd(r):	0	0	0	0
    Cl:	0	0	0	0
    Cl(f):	0	0	0	0
    Cl(r):	0	0	0	0
    CmPitch:	0	0	0	0
    CmRoll:	0	0	0	0
    CmYaw:	0	0	0	0
    Cs:	0	0	0	0
    Cs(f):	0	0	0	0
    Cs(r):	0	0	0	0

    writing force and moment coefficient files.

Time = 35

smoothSolver:  Solving for Ux, Initial residual = 0.750595, Final residual = 0.0130296, No Iterations 2
smoothSolver:  Solving for Uy, Initial residual = 0.77321, Final residual = 0.00925624, No Iterations 2
smoothSolver:  Solving for Uz, Initial residual = 0.766105, Final residual = 0.0673316, No Iterations 1
GAMG:  Solving for p, Initial residual = 0.0592505, Final residual = 0.000418876, No Iterations 4
time step continuity errors : sum local = 1.20725e-11, global = 2.34875e-13, cumulative = 3.08181e-12
smoothSolver:  Solving for omega, Initial residual = 7.03026e-09, Final residual = 7.03026e-09, No Iterations 0
smoothSolver:  Solving for k, Initial residual = 3.64972e-08, Final residual = 1.25964e-09, No Iterations 1
ExecutionTime = 0.23 s  ClockTime = 1 s

forceCoeffs forceCoeffs1 write:
    Coefficient	Total	Pressure	Viscous	Internal
    Cd:	0	0	0	0
    Cd(f):	0	0	0	0
    Cd(r):	0	0	0	0
    Cl:	0	0	0	0
    Cl(f):	0	0	0	0
    Cl(r):	0	0	0	0
    CmPitch:	0	0	0	0
    CmRoll:	0	0	0	0
    CmYaw:	0	0	0	0
    Cs:	0	0	0	0
    Cs(f):	0	0	0	0
    Cs(r):	0	0	0	0

    writing force and moment coefficient files.

Time = 36

smoothSolver:  Solving for Ux, Initial residual = 0.767565, Final residual = 0.0130046, No Iterations 2
smoothSolver:  Solving for Uy, Initial residual = 0.754931, Final residual = 0.00874217, No Iterations 2
smoothSolver:  Solving for Uz, Initial residual = 0.71248, Final residual = 0.066165, No Iterations 1
GAMG:  Solving for p, Initial residual = 0.0594526, Final residual = 0.000388651, No Iterations 4
time step continuity errors : sum local = 1.02459e-11, global = 1.58204e-13, cumulative = 3.24002e-12
smoothSolver:  Solving for omega, Initial residual = 7.03172e-09, Final residual = 7.03172e-09, No Iterations 0
smoothSolver:  Solving for k, Initial residual = 1.82611e-08, Final residual = 6.22873e-10, No Iterations 1
ExecutionTime = 0.23 s  ClockTime = 1 s

forceCoeffs forceCoeffs1 write:
    Coefficient	Total	Pressure	Viscous	Internal
    Cd:	0	0	0	0
    Cd(f):	0	0	0	0
    Cd(r):	0	0	0	0
    Cl:	0	0	0	0
    Cl(f):	0	0	0	0
    Cl(r):	0	0	0	0
    CmPitch:	0	0	0	0
    CmRoll:	0	0	0	0
    CmYaw:	0	0	0	0
    Cs:	0	0	0	0
    Cs(f):	0	0	0	0
    Cs(r):	0	0	0	0

    writing force and moment coefficient files.

Time = 37

smoothSolver:  Solving for Ux, Initial residual = 0.78247, Final residual = 0.0128356, No Iterations 2
smoothSolver:  Solving for Uy, Initial residual = 0.722294, Final residual = 0.00823012, No Iterations 2
smoothSolver:  Solving for Uz, Initial residual = 0.624408, Final residual = 0.0613978, No Iterations 1
GAMG:  Solving for p, Initial residual = 0.0597933, Final residual = 0.000356663, No Iterations 4
time step continuity errors : sum local = 8.55273e-12, global = 1.06313e-13, cumulative = 3.34633e-12
smoothSolver:  Solving for omega, Initial residual = 7.03204e-09, Final residual = 7.03204e-09, No Iterations 0
smoothSolver:  Solving for k, Initial residual = 9.0616e-09, Final residual = 9.0616e-09, No Iterations 0
ExecutionTime = 0.23 s  ClockTime = 1 s

forceCoeffs forceCoeffs1 write:
    Coefficient	Total	Pressure	Viscous	Internal
    Cd:	0	0	0	0
    Cd(f):	0	0	0	0
    Cd(r):	0	0	0	0
    Cl:	0	0	0	0
    Cl(f):	0	0	0	0
    Cl(r):	0	0	0	0
    CmPitch:	0	0	0	0
    CmRoll:	0	0	0	0
    CmYaw:	0	0	0	0
    Cs:	0	0	0	0
    Cs(f):	0	0	0	0
    Cs(r):	0	0	0	0

    writing force and moment coefficient files.

Time = 38

smoothSolver:  Solving for Ux, Initial residual = 0.788883, Final residual = 0.0125038, No Iterations 2
smoothSolver:  Solving for Uy, Initial residual = 0.688104, Final residual = 0.00787703, No Iterations 2
smoothSolver:  Solving for Uz, Initial residual = 0.54476, Final residual = 0.006108, No Iterations 2
GAMG:  Solving for p, Initial residual = 0.060249, Final residual = 0.000342168, No Iterations 4
time step continuity errors : sum local = 7.42652e-12, global = -4.38166e-14, cumulative = 3.30251e-12
smoothSolver:  Solving for omega, Initial residual = 7.03165e-09, Final residual = 7.03165e-09, No Iterations 0
smoothSolver:  Solving for k, Initial residual = 9.06173e-09, Final residual = 9.06173e-09, No Iterations 0
ExecutionTime = 0.23 s  ClockTime = 1 s

forceCoeffs forceCoeffs1 write:
    Coefficient	Total	Pressure	Viscous	Internal
    Cd:	0	0	0	0
    Cd(f):	0	0	0	0
    Cd(r):	0	0	0	0
    Cl:	0	0	0	0
    Cl(f):	0	0	0	0
    Cl(r):	0	0	0	0
    CmPitch:	0	0	0	0
    CmRoll:	0	0	0	0
    CmYaw:	0	0	0	0
    Cs:	0	0	0	0
    Cs(f):	0	0	0	0
    Cs(r):	0	0	0	0

    writing force and moment coefficient files.

Time = 39

smoothSolver:  Solving for Ux, Initial residual = 0.796884, Final residual = 0.0122504, No Iterations 2
smoothSolver:  Solving for Uy, Initial residual = 0.649382, Final residual = 0.00779588, No Iterations 2
smoothSolver:  Solving for Uz, Initial residual = 0.48736, Final residual = 0.00593679, No Iterations 2
GAMG:  Solving for p, Initial residual = 0.0613016, Final residual = 0.000303984, No Iterations 4
time step continuity errors : sum local = 5.9542e-12, global = -1.03841e-13, cumulative = 3.19867e-12
smoothSolver:  Solving for omega, Initial residual = 7.0311e-09, Final residual = 7.0311e-09, No Iterations 0
smoothSolver:  Solving for k, Initial residual = 9.06197e-09, Final residual = 9.06197e-09, No Iterations 0
ExecutionTime = 0.24 s  ClockTime = 1 s

forceCoeffs forceCoeffs1 write:
    Coefficient	Total	Pressure	Viscous	Internal
    Cd:	0	0	0	0
    Cd(f):	0	0	0	0
    Cd(r):	0	0	0	0
    Cl:	0	0	0	0
    Cl(f):	0	0	0	0
    Cl(r):	0	0	0	0
    CmPitch:	0	0	0	0
    CmRoll:	0	0	0	0
    CmYaw:	0	0	0	0
    Cs:	0	0	0	0
    Cs(f):	0	0	0	0
    Cs(r):	0	0	0	0

    writing force and moment coefficient files.

Time = 40

smoothSolver:  Solving for Ux, Initial residual = 0.783345, Final residual = 0.0116563, No Iterations 2
smoothSolver:  Solving for Uy, Initial residual = 0.625121, Final residual = 0.00780399, No Iterations 2
smoothSolver:  Solving for Uz, Initial residual = 0.455622, Final residual = 0.00561039, No Iterations 2
GAMG:  Solving for p, Initial residual = 0.0627802, Final residual = 0.000606292, No Iterations 3
time step continuity errors : sum local = 1.06888e-11, global = -5.2968e-13, cumulative = 2.66899e-12
smoothSolver:  Solving for omega, Initial residual = 7.03084e-09, Final residual = 7.03084e-09, No Iterations 0
smoothSolver:  Solving for k, Initial residual = 9.06209e-09, Final residual = 9.06209e-09, No Iterations 0
ExecutionTime = 0.24 s  ClockTime = 1 s

forceCoeffs forceCoeffs1 write:
    Coefficient	Total	Pressure	Viscous	Internal
    Cd:	0	0	0	0
    Cd(f):	0	0	0	0
    Cd(r):	0	0	0	0
    Cl:	0	0	0	0
    Cl(f):	0	0	0	0
    Cl(r):	0	0	0	0
    CmPitch:	0	0	0	0
    CmRoll:	0	0	0	0
    CmYaw:	0	0	0	0
    Cs:	0	0	0	0
    Cs(f):	0	0	0	0
    Cs(r):	0	0	0	0

    writing force and moment coefficient files.

Time = 41

smoothSolver:  Solving for Ux, Initial residual = 0.768629, Final residual = 0.0109943, No Iterations 2
smoothSolver:  Solving for Uy, Initial residual = 0.608659, Final residual = 0.00783629, No Iterations 2
smoothSolver:  Solving for Uz, Initial residual = 0.428708, Final residual = 0.00513655, No Iterations 2
GAMG:  Solving for p, Initial residual = 0.0642731, Final residual = 0.000511526, No Iterations 3
time step continuity errors : sum local = 8.12048e-12, global = -6.11032e-13, cumulative = 2.05796e-12
smoothSolver:  Solving for omega, Initial residual = 7.03062e-09, Final residual = 7.03062e-09, No Iterations 0
smoothSolver:  Solving for k, Initial residual = 9.06218e-09, Final residual = 9.06218e-09, No Iterations 0
ExecutionTime = 0.24 s  ClockTime = 1 s

forceCoeffs forceCoeffs1 write:
    Coefficient	Total	Pressure	Viscous	Internal
    Cd:	0	0	0	0
    Cd(f):	0	0	0	0
    Cd(r):	0	0	0	0
    Cl:	0	0	0	0
    Cl(f):	0	0	0	0
    Cl(r):	0	0	0	0
    CmPitch:	0	0	0	0
    CmRoll:	0	0	0	0
    CmYaw:	0	0	0	0
    Cs:	0	0	0	0
    Cs(f):	0	0	0	0
    Cs(r):	0	0	0	0

    writing force and moment coefficient files.

Time = 42

smoothSolver:  Solving for Ux, Initial residual = 0.762315, Final residual = 0.010433, No Iterations 2
smoothSolver:  Solving for Uy, Initial residual = 0.595891, Final residual = 0.0078684, No Iterations 2
smoothSolver:  Solving for Uz, Initial residual = 0.408203, Final residual = 0.00472576, No Iterations 2
GAMG:  Solving for p, Initial residual = 0.0653861, Final residual = 0.000394754, No Iterations 3
time step continuity errors : sum local = 5.64313e-12, global = -6.31384e-13, cumulative = 1.42657e-12
smoothSolver:  Solving for omega, Initial residual = 7.03054e-09, Final residual = 7.03054e-09, No Iterations 0
smoothSolver:  Solving for k, Initial residual = 9.06223e-09, Final residual = 9.06223e-09, No Iterations 0
ExecutionTime = 0.24 s  ClockTime = 1 s

forceCoeffs forceCoeffs1 write:
    Coefficient	Total	Pressure	Viscous	Internal
    Cd:	0	0	0	0
    Cd(f):	0	0	0	0
    Cd(r):	0	0	0	0
    Cl:	0	0	0	0
    Cl(f):	0	0	0	0
    Cl(r):	0	0	0	0
    CmPitch:	0	0	0	0
    CmRoll:	0	0	0	0
    CmYaw:	0	0	0	0
    Cs:	0	0	0	0
    Cs(f):	0	0	0	0
    Cs(r):	0	0	0	0

    writing force and moment coefficient files.

Time = 43

smoothSolver:  Solving for Ux, Initial residual = 0.757674, Final residual = 0.00991639, No Iterations 2
smoothSolver:  Solving for Uy, Initial residual = 0.585579, Final residual = 0.00795706, No Iterations 2
smoothSolver:  Solving for Uz, Initial residual = 0.391448, Final residual = 0.00437914, No Iterations 2
GAMG:  Solving for p, Initial residual = 0.066132, Final residual = 0.000292226, No Iterations 3
time step continuity errors : sum local = 3.76183e-12, global = -6.10369e-13, cumulative = 8.16205e-13
smoothSolver:  Solving for omega, Initial residual = 7.03057e-09, Final residual = 7.03057e-09, No Iterations 0
smoothSolver:  Solving for k, Initial residual = 9.06225e-09, Final residual = 9.06225e-09, No Iterations 0
ExecutionTime = 0.26 s  ClockTime = 1 s

forceCoeffs forceCoeffs1 write:
    Coefficient	Total	Pressure	Viscous	Internal
    Cd:	0	0	0	0
    Cd(f):	0	0	0	0
    Cd(r):	0	0	0	0
    Cl:	0	0	0	0
    Cl(f):	0	0	0	0
    Cl(r):	0	0	0	0
    CmPitch:	0	0	0	0
    CmRoll:	0	0	0	0
    CmYaw:	0	0	0	0
    Cs:	0	0	0	0
    Cs(f):	0	0	0	0
    Cs(r):	0	0	0	0

    writing force and moment coefficient files.

Time = 44

smoothSolver:  Solving for Ux, Initial residual = 0.755115, Final residual = 0.0094537, No Iterations 2
smoothSolver:  Solving for Uy, Initial residual = 0.576663, Final residual = 0.00800936, No Iterations 2
smoothSolver:  Solving for Uz, Initial residual = 0.381142, Final residual = 0.00409226, No Iterations 2
GAMG:  Solving for p, Initial residual = 0.0664979, Final residual = 0.000222995, No Iterations 3
time step continuity errors : sum local = 2.58363e-12, global = -5.85861e-13, cumulative = 2.30344e-13
smoothSolver:  Solving for omega, Initial residual = 7.03071e-09, Final residual = 7.03071e-09, No Iterations 0
smoothSolver:  Solving for k, Initial residual = 9.06222e-09, Final residual = 9.06222e-09, No Iterations 0
ExecutionTime = 0.26 s  ClockTime = 1 s

forceCoeffs forceCoeffs1 write:
    Coefficient	Total	Pressure	Viscous	Internal
    Cd:	0	0	0	0
    Cd(f):	0	0	0	0
    Cd(r):	0	0	0	0
    Cl:	0	0	0	0
    Cl(f):	0	0	0	0
    Cl(r):	0	0	0	0
    CmPitch:	0	0	0	0
    CmRoll:	0	0	0	0
    CmYaw:	0	0	0	0
    Cs:	0	0	0	0
    Cs(f):	0	0	0	0
    Cs(r):	0	0	0	0

    writing force and moment coefficient files.

Time = 45

smoothSolver:  Solving for Ux, Initial residual = 0.755702, Final residual = 0.00900242, No Iterations 2
smoothSolver:  Solving for Uy, Initial residual = 0.570749, Final residual = 0.00804969, No Iterations 2
smoothSolver:  Solving for Uz, Initial residual = 0.374186, Final residual = 0.00381809, No Iterations 2
GAMG:  Solving for p, Initial residual = 0.0664725, Final residual = 0.00020265, No Iterations 3
time step continuity errors : sum local = 2.11219e-12, global = -5.80206e-13, cumulative = -3.49862e-13
smoothSolver:  Solving for omega, Initial residual = 7.03092e-09, Final residual = 7.03092e-09, No Iterations 0
smoothSolver:  Solving for k, Initial residual = 9.06215e-09, Final residual = 9.06215e-09, No Iterations 0
ExecutionTime = 0.26 s  ClockTime = 1 s

forceCoeffs forceCoeffs1 write:
    Coefficient	Total	Pressure	Viscous	Internal
    Cd:	0	0	0	0
    Cd(f):	0	0	0	0
    Cd(r):	0	0	0	0
    Cl:	0	0	0	0
    Cl(f):	0	0	0	0
    Cl(r):	0	0	0	0
    CmPitch:	0	0	0	0
    CmRoll:	0	0	0	0
    CmYaw:	0	0	0	0
    Cs:	0	0	0	0
    Cs(f):	0	0	0	0
    Cs(r):	0	0	0	0

    writing force and moment coefficient files.

Time = 46

smoothSolver:  Solving for Ux, Initial residual = 0.757085, Final residual = 0.074273, No Iterations 1
smoothSolver:  Solving for Uy, Initial residual = 0.567822, Final residual = 0.00811327, No Iterations 2
smoothSolver:  Solving for Uz, Initial residual = 0.37052, Final residual = 0.00359756, No Iterations 2
GAMG:  Solving for p, Initial residual = 0.0683354, Final residual = 0.000261364, No Iterations 3
time step continuity errors : sum local = 2.45792e-12, global = -5.98655e-13, cumulative = -9.48517e-13
smoothSolver:  Solving for omega, Initial residual = 7.03115e-09, Final residual = 7.03115e-09, No Iterations 0
smoothSolver:  Solving for k, Initial residual = 9.06161e-09, Final residual = 9.06161e-09, No Iterations 0
ExecutionTime = 0.26 s  ClockTime = 1 s

forceCoeffs forceCoeffs1 write:
    Coefficient	Total	Pressure	Viscous	Internal
    Cd:	0	0	0	0
    Cd(f):	0	0	0	0
    Cd(r):	0	0	0	0
    Cl:	0	0	0	0
    Cl(f):	0	0	0	0
    Cl(r):	0	0	0	0
    CmPitch:	0	0	0	0
    CmRoll:	0	0	0	0
    CmYaw:	0	0	0	0
    Cs:	0	0	0	0
    Cs(f):	0	0	0	0
    Cs(r):	0	0	0	0

    writing force and moment coefficient files.

Time = 47

smoothSolver:  Solving for Ux, Initial residual = 0.716851, Final residual = 0.0712466, No Iterations 1
smoothSolver:  Solving for Uy, Initial residual = 0.585295, Final residual = 0.0091714, No Iterations 2
smoothSolver:  Solving for Uz, Initial residual = 0.389237, Final residual = 0.00382906, No Iterations 2
GAMG:  Solving for p, Initial residual = 0.0669574, Final residual = 0.00032516, No Iterations 3
time step continuity errors : sum local = 2.78439e-12, global = -5.7608e-13, cumulative = -1.5246e-12
smoothSolver:  Solving for omega, Initial residual = 7.03138e-09, Final residual = 7.03138e-09, No Iterations 0
smoothSolver:  Solving for k, Initial residual = 9.06146e-09, Final residual = 9.06146e-09, No Iterations 0
ExecutionTime = 0.27 s  ClockTime = 1 s

forceCoeffs forceCoeffs1 write:
    Coefficient	Total	Pressure	Viscous	Internal
    Cd:	0	0	0	0
    Cd(f):	0	0	0	0
    Cd(r):	0	0	0	0
    Cl:	0	0	0	0
    Cl(f):	0	0	0	0
    Cl(r):	0	0	0	0
    CmPitch:	0	0	0	0
    CmRoll:	0	0	0	0
    CmYaw:	0	0	0	0
    Cs:	0	0	0	0
    Cs(f):	0	0	0	0
    Cs(r):	0	0	0	0

    writing force and moment coefficient files.

Time = 48

smoothSolver:  Solving for Ux, Initial residual = 0.690204, Final residual = 0.0673158, No Iterations 1
smoothSolver:  Solving for Uy, Initial residual = 0.599531, Final residual = 0.00929882, No Iterations 2
smoothSolver:  Solving for Uz, Initial residual = 0.396801, Final residual = 0.0036606, No Iterations 2
GAMG:  Solving for p, Initial residual = 0.0651833, Final residual = 0.000425525, No Iterations 3
time step continuity errors : sum local = 3.33281e-12, global = -5.22663e-13, cumulative = -2.04726e-12
smoothSolver:  Solving for omega, Initial residual = 7.03168e-09, Final residual = 7.03168e-09, No Iterations 0
smoothSolver:  Solving for k, Initial residual = 9.06146e-09, Final residual = 9.06146e-09, No Iterations 0
ExecutionTime = 0.27 s  ClockTime = 1 s

forceCoeffs forceCoeffs1 write:
    Coefficient	Total	Pressure	Viscous	Internal
    Cd:	0	0	0	0
    Cd(f):	0	0	0	0
    Cd(r):	0	0	0	0
    Cl:	0	0	0	0
    Cl(f):	0	0	0	0
    Cl(r):	0	0	0	0
    CmPitch:	0	0	0	0
    CmRoll:	0	0	0	0
    CmYaw:	0	0	0	0
    Cs:	0	0	0	0
    Cs(f):	0	0	0	0
    Cs(r):	0	0	0	0

    writing force and moment coefficient files.

Time = 49

smoothSolver:  Solving for Ux, Initial residual = 0.684746, Final residual = 0.0639759, No Iterations 1
smoothSolver:  Solving for Uy, Initial residual = 0.601674, Final residual = 0.00907042, No Iterations 2
smoothSolver:  Solving for Uz, Initial residual = 0.396226, Final residual = 0.00337707, No Iterations 2
GAMG:  Solving for p, Initial residual = 0.0635522, Final residual = 0.00050593, No Iterations 3
time step continuity errors : sum local = 3.63049e-12, global = -5.26983e-13, cumulative = -2.57424e-12
smoothSolver:  Solving for omega, Initial residual = 7.03204e-09, Final residual = 7.03204e-09, No Iterations 0
smoothSolver:  Solving for k, Initial residual = 9.06143e-09, Final residual = 9.06143e-09, No Iterations 0
ExecutionTime = 0.27 s  ClockTime = 1 s

forceCoeffs forceCoeffs1 write:
    Coefficient	Total	Pressure	Viscous	Internal
    Cd:	0	0	0	0
    Cd(f):	0	0	0	0
    Cd(r):	0	0	0	0
    Cl:	0	0	0	0
    Cl(f):	0	0	0	0
    Cl(r):	0	0	0	0
    CmPitch:	0	0	0	0
    CmRoll:	0	0	0	0
    CmYaw:	0	0	0	0
    Cs:	0	0	0	0
    Cs(f):	0	0	0	0
    Cs(r):	0	0	0	0

    writing force and moment coefficient files.

Time = 50

smoothSolver:  Solving for Ux, Initial residual = 0.681211, Final residual = 0.0605239, No Iterations 1
smoothSolver:  Solving for Uy, Initial residual = 0.61049, Final residual = 0.00882555, No Iterations 2
smoothSolver:  Solving for Uz, Initial residual = 0.401675, Final residual = 0.00321386, No Iterations 2
GAMG:  Solving for p, Initial residual = 0.0619065, Final residual = 0.00061178, No Iterations 3
time step continuity errors : sum local = 4.02594e-12, global = -4.36495e-13, cumulative = -3.01074e-12
smoothSolver:  Solving for omega, Initial residual = 7.03243e-09, Final residual = 7.03243e-09, No Iterations 0
smoothSolver:  Solving for k, Initial residual = 9.06139e-09, Final residual = 9.06139e-09, No Iterations 0
ExecutionTime = 0.27 s  ClockTime = 1 s

forceCoeffs forceCoeffs1 write:
    Coefficient	Total	Pressure	Viscous	Internal
    Cd:	0	0	0	0
    Cd(f):	0	0	0	0
    Cd(r):	0	0	0	0
    Cl:	0	0	0	0
    Cl(f):	0	0	0	0
    Cl(r):	0	0	0	0
    CmPitch:	0	0	0	0
    CmRoll:	0	0	0	0
    CmYaw:	0	0	0	0
    Cs:	0	0	0	0
    Cs(f):	0	0	0	0
    Cs(r):	0	0	0	0

    writing force and moment coefficient files.

Time = 51

smoothSolver:  Solving for Ux, Initial residual = 0.678985, Final residual = 0.0572635, No Iterations 1
smoothSolver:  Solving for Uy, Initial residual = 0.62805, Final residual = 0.00865587, No Iterations 2
smoothSolver:  Solving for Uz, Initial residual = 0.416099, Final residual = 0.00315606, No Iterations 2
GAMG:  Solving for p, Initial residual = 0.0601992, Final residual = 0.000282373, No Iterations 4
time step continuity errors : sum local = 1.70337e-12, global = -1.12917e-13, cumulative = -3.12366e-12
smoothSolver:  Solving for omega, Initial residual = 7.03286e-09, Final residual = 7.03286e-09, No Iterations 0
smoothSolver:  Solving for k, Initial residual = 9.06145e-09, Final residual = 9.06145e-09, No Iterations 0
ExecutionTime = 0.28 s  ClockTime = 1 s

forceCoeffs forceCoeffs1 write:
    Coefficient	Total	Pressure	Viscous	Internal
    Cd:	0	0	0	0
    Cd(f):	0	0	0	0
    Cd(r):	0	0	0	0
    Cl:	0	0	0	0
    Cl(f):	0	0	0	0
    Cl(r):	0	0	0	0
    CmPitch:	0	0	0	0
    CmRoll:	0	0	0	0
    CmYaw:	0	0	0	0
    Cs:	0	0	0	0
    Cs(f):	0	0	0	0
    Cs(r):	0	0	0	0

    writing force and moment coefficient files.

Time = 52

smoothSolver:  Solving for Ux, Initial residual = 0.677516, Final residual = 0.0542799, No Iterations 1
smoothSolver:  Solving for Uy, Initial residual = 0.64742, Final residual = 0.00848445, No Iterations 2
smoothSolver:  Solving for Uz, Initial residual = 0.437512, Final residual = 0.0417742, No Iterations 1
GAMG:  Solving for p, Initial residual = 0.0589063, Final residual = 0.000327632, No Iterations 4
time step continuity errors : sum local = 1.81014e-12, global = -7.01641e-14, cumulative = -3.19382e-12
smoothSolver:  Solving for omega, Initial residual = 7.03323e-09, Final residual = 7.03323e-09, No Iterations 0
smoothSolver:  Solving for k, Initial residual = 9.06133e-09, Final residual = 9.06133e-09, No Iterations 0
ExecutionTime = 0.28 s  ClockTime = 1 s

forceCoeffs forceCoeffs1 write:
    Coefficient	Total	Pressure	Viscous	Internal
    Cd:	0	0	0	0
    Cd(f):	0	0	0	0
    Cd(r):	0	0	0	0
    Cl:	0	0	0	0
    Cl(f):	0	0	0	0
    Cl(r):	0	0	0	0
    CmPitch:	0	0	0	0
    CmRoll:	0	0	0	0
    CmYaw:	0	0	0	0
    Cs:	0	0	0	0
    Cs(f):	0	0	0	0
    Cs(r):	0	0	0	0

    writing force and moment coefficient files.

Time = 53

smoothSolver:  Solving for Ux, Initial residual = 0.675007, Final residual = 0.0519448, No Iterations 1
smoothSolver:  Solving for Uy, Initial residual = 0.671976, Final residual = 0.00811813, No Iterations 2
smoothSolver:  Solving for Uz, Initial residual = 0.45433, Final residual = 0.0415393, No Iterations 1
GAMG:  Solving for p, Initial residual = 0.0573714, Final residual = 0.000331613, No Iterations 4
time step continuity errors : sum local = 1.67824e-12, global = -3.51861e-14, cumulative = -3.22901e-12
smoothSolver:  Solving for omega, Initial residual = 7.03355e-09, Final residual = 7.03355e-09, No Iterations 0
smoothSolver:  Solving for k, Initial residual = 9.06121e-09, Final residual = 9.06121e-09, No Iterations 0
ExecutionTime = 0.28 s  ClockTime = 1 s

forceCoeffs forceCoeffs1 write:
    Coefficient	Total	Pressure	Viscous	Internal
    Cd:	0	0	0	0
    Cd(f):	0	0	0	0
    Cd(r):	0	0	0	0
    Cl:	0	0	0	0
    Cl(f):	0	0	0	0
    Cl(r):	0	0	0	0
    CmPitch:	0	0	0	0
    CmRoll:	0	0	0	0
    CmYaw:	0	0	0	0
    Cs:	0	0	0	0
    Cs(f):	0	0	0	0
    Cs(r):	0	0	0	0

    writing force and moment coefficient files.

Time = 54

smoothSolver:  Solving for Ux, Initial residual = 0.683008, Final residual = 0.0517799, No Iterations 1
smoothSolver:  Solving for Uy, Initial residual = 0.694036, Final residual = 0.00804253, No Iterations 2
smoothSolver:  Solving for Uz, Initial residual = 0.471123, Final residual = 0.0415644, No Iterations 1
GAMG:  Solving for p, Initial residual = 0.056276, Final residual = 0.000325337, No Iterations 4
time step continuity errors : sum local = 1.51015e-12, global = -1.98744e-16, cumulative = -3.22921e-12
smoothSolver:  Solving for omega, Initial residual = 7.03384e-09, Final residual = 7.03384e-09, No Iterations 0
smoothSolver:  Solving for k, Initial residual = 9.0611e-09, Final residual = 9.0611e-09, No Iterations 0
ExecutionTime = 0.28 s  ClockTime = 1 s

forceCoeffs forceCoeffs1 write:
    Coefficient	Total	Pressure	Viscous	Internal
    Cd:	0	0	0	0
    Cd(f):	0	0	0	0
    Cd(r):	0	0	0	0
    Cl:	0	0	0	0
    Cl(f):	0	0	0	0
    Cl(r):	0	0	0	0
    CmPitch:	0	0	0	0
    CmRoll:	0	0	0	0
    CmYaw:	0	0	0	0
    Cs:	0	0	0	0
    Cs(f):	0	0	0	0
    Cs(r):	0	0	0	0

    writing force and moment coefficient files.

Time = 55

smoothSolver:  Solving for Ux, Initial residual = 0.689714, Final residual = 0.0523231, No Iterations 1
smoothSolver:  Solving for Uy, Initial residual = 0.707734, Final residual = 0.00804934, No Iterations 2
smoothSolver:  Solving for Uz, Initial residual = 0.504745, Final residual = 0.0445788, No Iterations 1
GAMG:  Solving for p, Initial residual = 0.0553942, Final residual = 0.000314179, No Iterations 4
time step continuity errors : sum local = 1.33903e-12, global = -2.36675e-14, cumulative = -3.25287e-12
smoothSolver:  Solving for omega, Initial residual = 7.03408e-09, Final residual = 7.03408e-09, No Iterations 0
smoothSolver:  Solving for k, Initial residual = 9.06097e-09, Final residual = 9.06097e-09, No Iterations 0
ExecutionTime = 0.29 s  ClockTime = 1 s

forceCoeffs forceCoeffs1 write:
    Coefficient	Total	Pressure	Viscous	Internal
    Cd:	0	0	0	0
    Cd(f):	0	0	0	0
    Cd(r):	0	0	0	0
    Cl:	0	0	0	0
    Cl(f):	0	0	0	0
    Cl(r):	0	0	0	0
    CmPitch:	0	0	0	0
    CmRoll:	0	0	0	0
    CmYaw:	0	0	0	0
    Cs:	0	0	0	0
    Cs(f):	0	0	0	0
    Cs(r):	0	0	0	0

    writing force and moment coefficient files.

Time = 56

smoothSolver:  Solving for Ux, Initial residual = 0.697475, Final residual = 0.053187, No Iterations 1
smoothSolver:  Solving for Uy, Initial residual = 0.717995, Final residual = 0.00801112, No Iterations 2
smoothSolver:  Solving for Uz, Initial residual = 0.539714, Final residual = 0.0475072, No Iterations 1
GAMG:  Solving for p, Initial residual = 0.0545542, Final residual = 0.000300731, No Iterations 4
time step continuity errors : sum local = 1.17876e-12, global = 1.72017e-15, cumulative = -3.25115e-12
smoothSolver:  Solving for omega, Initial residual = 7.03428e-09, Final residual = 7.03428e-09, No Iterations 0
smoothSolver:  Solving for k, Initial residual = 9.06086e-09, Final residual = 9.06086e-09, No Iterations 0
ExecutionTime = 0.29 s  ClockTime = 1 s

forceCoeffs forceCoeffs1 write:
    Coefficient	Total	Pressure	Viscous	Internal
    Cd:	0	0	0	0
    Cd(f):	0	0	0	0
    Cd(r):	0	0	0	0
    Cl:	0	0	0	0
    Cl(f):	0	0	0	0
    Cl(r):	0	0	0	0
    CmPitch:	0	0	0	0
    CmRoll:	0	0	0	0
    CmYaw:	0	0	0	0
    Cs:	0	0	0	0
    Cs(f):	0	0	0	0
    Cs(r):	0	0	0	0

    writing force and moment coefficient files.

Time = 57

smoothSolver:  Solving for Ux, Initial residual = 0.703479, Final residual = 0.0545335, No Iterations 1
smoothSolver:  Solving for Uy, Initial residual = 0.726129, Final residual = 0.007978, No Iterations 2
smoothSolver:  Solving for Uz, Initial residual = 0.573347, Final residual = 0.0496376, No Iterations 1
GAMG:  Solving for p, Initial residual = 0.0538313, Final residual = 0.000282904, No Iterations 4
time step continuity errors : sum local = 1.02083e-12, global = 1.4628e-14, cumulative = -3.23652e-12
smoothSolver:  Solving for omega, Initial residual = 7.03445e-09, Final residual = 7.03445e-09, No Iterations 0
smoothSolver:  Solving for k, Initial residual = 9.06076e-09, Final residual = 9.06076e-09, No Iterations 0
ExecutionTime = 0.29 s  ClockTime = 1 s

forceCoeffs forceCoeffs1 write:
    Coefficient	Total	Pressure	Viscous	Internal
    Cd:	0	0	0	0
    Cd(f):	0	0	0	0
    Cd(r):	0	0	0	0
    Cl:	0	0	0	0
    Cl(f):	0	0	0	0
    Cl(r):	0	0	0	0
    CmPitch:	0	0	0	0
    CmRoll:	0	0	0	0
    CmYaw:	0	0	0	0
    Cs:	0	0	0	0
    Cs(f):	0	0	0	0
    Cs(r):	0	0	0	0

    writing force and moment coefficient files.

Time = 58

smoothSolver:  Solving for Ux, Initial residual = 0.710937, Final residual = 0.0556209, No Iterations 1
smoothSolver:  Solving for Uy, Initial residual = 0.732288, Final residual = 0.0716622, No Iterations 1
smoothSolver:  Solving for Uz, Initial residual = 0.603187, Final residual = 0.0516604, No Iterations 1
GAMG:  Solving for p, Initial residual = 0.0536865, Final residual = 0.00026634, No Iterations 4
time step continuity errors : sum local = 8.83542e-13, global = 1.99105e-14, cumulative = -3.21661e-12
smoothSolver:  Solving for omega, Initial residual = 7.03458e-09, Final residual = 7.03458e-09, No Iterations 0
smoothSolver:  Solving for k, Initial residual = 9.06066e-09, Final residual = 9.06066e-09, No Iterations 0
ExecutionTime = 0.3 s  ClockTime = 1 s

forceCoeffs forceCoeffs1 write:
    Coefficient	Total	Pressure	Viscous	Internal
    Cd:	0	0	0	0
    Cd(f):	0	0	0	0
    Cd(r):	0	0	0	0
    Cl:	0	0	0	0
    Cl(f):	0	0	0	0
    Cl(r):	0	0	0	0
    CmPitch:	0	0	0	0
    CmRoll:	0	0	0	0
    CmYaw:	0	0	0	0
    Cs:	0	0	0	0
    Cs(f):	0	0	0	0
    Cs(r):	0	0	0	0

    writing force and moment coefficient files.

Time = 59

smoothSolver:  Solving for Ux, Initial residual = 0.724214, Final residual = 0.0575625, No Iterations 1
smoothSolver:  Solving for Uy, Initial residual = 0.685873, Final residual = 0.0654843, No Iterations 1
smoothSolver:  Solving for Uz, Initial residual = 0.631568, Final residual = 0.0529942, No Iterations 1
GAMG:  Solving for p, Initial residual = 0.0531211, Final residual = 0.000244175, No Iterations 4
time step continuity errors : sum local = 7.43021e-13, global = 2.66198e-14, cumulative = -3.18999e-12
smoothSolver:  Solving for omega, Initial residual = 7.0347e-09, Final residual = 7.0347e-09, No Iterations 0
smoothSolver:  Solving for k, Initial residual = 9.06055e-09, Final residual = 9.06055e-09, No Iterations 0
ExecutionTime = 0.3 s  ClockTime = 1 s

forceCoeffs forceCoeffs1 write:
    Coefficient	Total	Pressure	Viscous	Internal
    Cd:	0	0	0	0
    Cd(f):	0	0	0	0
    Cd(r):	0	0	0	0
    Cl:	0	0	0	0
    Cl(f):	0	0	0	0
    Cl(r):	0	0	0	0
    CmPitch:	0	0	0	0
    CmRoll:	0	0	0	0
    CmYaw:	0	0	0	0
    Cs:	0	0	0	0
    Cs(f):	0	0	0	0
    Cs(r):	0	0	0	0

    writing force and moment coefficient files.

Time = 60

smoothSolver:  Solving for Ux, Initial residual = 0.737902, Final residual = 0.0587003, No Iterations 1
smoothSolver:  Solving for Uy, Initial residual = 0.668339, Final residual = 0.0623934, No Iterations 1
smoothSolver:  Solving for Uz, Initial residual = 0.652051, Final residual = 0.0543317, No Iterations 1
GAMG:  Solving for p, Initial residual = 0.0527121, Final residual = 0.000219882, No Iterations 4
time step continuity errors : sum local = 6.1209e-13, global = 2.98803e-14, cumulative = -3.16011e-12
smoothSolver:  Solving for omega, Initial residual = 7.03479e-09, Final residual = 7.03479e-09, No Iterations 0
smoothSolver:  Solving for k, Initial residual = 9.06045e-09, Final residual = 9.06045e-09, No Iterations 0
ExecutionTime = 0.3 s  ClockTime = 1 s

forceCoeffs forceCoeffs1 write:
    Coefficient	Total	Pressure	Viscous	Internal
    Cd:	0	0	0	0
    Cd(f):	0	0	0	0
    Cd(r):	0	0	0	0
    Cl:	0	0	0	0
    Cl(f):	0	0	0	0
    Cl(r):	0	0	0	0
    CmPitch:	0	0	0	0
    CmRoll:	0	0	0	0
    CmYaw:	0	0	0	0
    Cs:	0	0	0	0
    Cs(f):	0	0	0	0
    Cs(r):	0	0	0	0

    writing force and moment coefficient files.

Time = 61

smoothSolver:  Solving for Ux, Initial residual = 0.747299, Final residual = 0.059197, No Iterations 1
smoothSolver:  Solving for Uy, Initial residual = 0.67066, Final residual = 0.0639758, No Iterations 1
smoothSolver:  Solving for Uz, Initial residual = 0.666434, Final residual = 0.0556823, No Iterations 1
GAMG:  Solving for p, Initial residual = 0.0525104, Final residual = 0.000482342, No Iterations 3
time step continuity errors : sum local = 1.22571e-12, global = 9.49386e-14, cumulative = -3.06518e-12
smoothSolver:  Solving for omega, Initial residual = 7.03484e-09, Final residual = 7.03484e-09, No Iterations 0
smoothSolver:  Solving for k, Initial residual = 9.0604e-09, Final residual = 9.0604e-09, No Iterations 0
ExecutionTime = 0.3 s  ClockTime = 1 s

forceCoeffs forceCoeffs1 write:
    Coefficient	Total	Pressure	Viscous	Internal
    Cd:	0	0	0	0
    Cd(f):	0	0	0	0
    Cd(r):	0	0	0	0
    Cl:	0	0	0	0
    Cl(f):	0	0	0	0
    Cl(r):	0	0	0	0
    CmPitch:	0	0	0	0
    CmRoll:	0	0	0	0
    CmYaw:	0	0	0	0
    Cs:	0	0	0	0
    Cs(f):	0	0	0	0
    Cs(r):	0	0	0	0

    writing force and moment coefficient files.

Time = 62

smoothSolver:  Solving for Ux, Initial residual = 0.75541, Final residual = 0.0603445, No Iterations 1
smoothSolver:  Solving for Uy, Initial residual = 0.666356, Final residual = 0.0651306, No Iterations 1
smoothSolver:  Solving for Uz, Initial residual = 0.672109, Final residual = 0.0574225, No Iterations 1
GAMG:  Solving for p, Initial residual = 0.0526527, Final residual = 0.000444171, No Iterations 3
time step continuity errors : sum local = 1.02899e-12, global = 9.39794e-14, cumulative = -2.9712e-12
smoothSolver:  Solving for omega, Initial residual = 7.03489e-09, Final residual = 7.03489e-09, No Iterations 0
smoothSolver:  Solving for k, Initial residual = 9.06031e-09, Final residual = 9.06031e-09, No Iterations 0
ExecutionTime = 0.31 s  ClockTime = 1 s

forceCoeffs forceCoeffs1 write:
    Coefficient	Total	Pressure	Viscous	Internal
    Cd:	0	0	0	0
    Cd(f):	0	0	0	0
    Cd(r):	0	0	0	0
    Cl:	0	0	0	0
    Cl(f):	0	0	0	0
    Cl(r):	0	0	0	0
    CmPitch:	0	0	0	0
    CmRoll:	0	0	0	0
    CmYaw:	0	0	0	0
    Cs:	0	0	0	0
    Cs(f):	0	0	0	0
    Cs(r):	0	0	0	0

    writing force and moment coefficient files.

Time = 63

smoothSolver:  Solving for Ux, Initial residual = 0.758312, Final residual = 0.0619442, No Iterations 1
smoothSolver:  Solving for Uy, Initial residual = 0.654506, Final residual = 0.0639308, No Iterations 1
smoothSolver:  Solving for Uz, Initial residual = 0.658904, Final residual = 0.0570778, No Iterations 1
GAMG:  Solving for p, Initial residual = 0.0528368, Final residual = 0.000387975, No Iterations 3
time step continuity errors : sum local = 8.17986e-13, global = 8.53495e-14, cumulative = -2.88585e-12
smoothSolver:  Solving for omega, Initial residual = 7.03492e-09, Final residual = 7.03492e-09, No Iterations 0
smoothSolver:  Solving for k, Initial residual = 9.06024e-09, Final residual = 9.06024e-09, No Iterations 0
ExecutionTime = 0.31 s  ClockTime = 1 s

forceCoeffs forceCoeffs1 write:
    Coefficient	Total	Pressure	Viscous	Internal
    Cd:	0	0	0	0
    Cd(f):	0	0	0	0
    Cd(r):	0	0	0	0
    Cl:	0	0	0	0
    Cl(f):	0	0	0	0
    Cl(r):	0	0	0	0
    CmPitch:	0	0	0	0
    CmRoll:	0	0	0	0
    CmYaw:	0	0	0	0
    Cs:	0	0	0	0
    Cs(f):	0	0	0	0
    Cs(r):	0	0	0	0

    writing force and moment coefficient files.

Time = 64

smoothSolver:  Solving for Ux, Initial residual = 0.755462, Final residual = 0.0631571, No Iterations 1
smoothSolver:  Solving for Uy, Initial residual = 0.643427, Final residual = 0.0627739, No Iterations 1
smoothSolver:  Solving for Uz, Initial residual = 0.629767, Final residual = 0.0558824, No Iterations 1
GAMG:  Solving for p, Initial residual = 0.0530994, Final residual = 0.000331171, No Iterations 3
time step continuity errors : sum local = 6.34584e-13, global = 7.39026e-14, cumulative = -2.81194e-12
smoothSolver:  Solving for omega, Initial residual = 7.03494e-09, Final residual = 7.03494e-09, No Iterations 0
smoothSolver:  Solving for k, Initial residual = 9.06017e-09, Final residual = 9.06017e-09, No Iterations 0
ExecutionTime = 0.31 s  ClockTime = 1 s

forceCoeffs forceCoeffs1 write:
    Coefficient	Total	Pressure	Viscous	Internal
    Cd:	0	0	0	0
    Cd(f):	0	0	0	0
    Cd(r):	0	0	0	0
    Cl:	0	0	0	0
    Cl(f):	0	0	0	0
    Cl(r):	0	0	0	0
    CmPitch:	0	0	0	0
    CmRoll:	0	0	0	0
    CmYaw:	0	0	0	0
    Cs:	0	0	0	0
    Cs(f):	0	0	0	0
    Cs(r):	0	0	0	0

    writing force and moment coefficient files.

Time = 65

smoothSolver:  Solving for Ux, Initial residual = 0.750781, Final residual = 0.063802, No Iterations 1
smoothSolver:  Solving for Uy, Initial residual = 0.627171, Final residual = 0.0611248, No Iterations 1
smoothSolver:  Solving for Uz, Initial residual = 0.596889, Final residual = 0.0556626, No Iterations 1
GAMG:  Solving for p, Initial residual = 0.0534851, Final residual = 0.000277506, No Iterations 3
time step continuity errors : sum local = 4.82439e-13, global = 6.1998e-14, cumulative = -2.74995e-12
smoothSolver:  Solving for omega, Initial residual = 7.03495e-09, Final residual = 7.03495e-09, No Iterations 0
smoothSolver:  Solving for k, Initial residual = 9.06012e-09, Final residual = 9.06012e-09, No Iterations 0
ExecutionTime = 0.31 s  ClockTime = 1 s

forceCoeffs forceCoeffs1 write:
    Coefficient	Total	Pressure	Viscous	Internal
    Cd:	0	0	0	0
    Cd(f):	0	0	0	0
    Cd(r):	0	0	0	0
    Cl:	0	0	0	0
    Cl(f):	0	0	0	0
    Cl(r):	0	0	0	0
    CmPitch:	0	0	0	0
    CmRoll:	0	0	0	0
    CmYaw:	0	0	0	0
    Cs:	0	0	0	0
    Cs(f):	0	0	0	0
    Cs(r):	0	0	0	0

    writing force and moment coefficient files.

Time = 66

smoothSolver:  Solving for Ux, Initial residual = 0.74383, Final residual = 0.0642187, No Iterations 1
smoothSolver:  Solving for Uy, Initial residual = 0.612053, Final residual = 0.0594756, No Iterations 1
smoothSolver:  Solving for Uz, Initial residual = 0.566433, Final residual = 0.0552671, No Iterations 1
GAMG:  Solving for p, Initial residual = 0.0540213, Final residual = 0.000230018, No Iterations 3
time step continuity errors : sum local = 3.62085e-13, global = 5.09065e-14, cumulative = -2.69904e-12
smoothSolver:  Solving for omega, Initial residual = 7.03496e-09, Final residual = 7.03496e-09, No Iterations 0
smoothSolver:  Solving for k, Initial residual = 9.06009e-09, Final residual = 9.06009e-09, No Iterations 0
ExecutionTime = 0.32 s  ClockTime = 1 s

forceCoeffs forceCoeffs1 write:
    Coefficient	Total	Pressure	Viscous	Internal
    Cd:	0	0	0	0
    Cd(f):	0	0	0	0
    Cd(r):	0	0	0	0
    Cl:	0	0	0	0
    Cl(f):	0	0	0	0
    Cl(r):	0	0	0	0
    CmPitch:	0	0	0	0
    CmRoll:	0	0	0	0
    CmYaw:	0	0	0	0
    Cs:	0	0	0	0
    Cs(f):	0	0	0	0
    Cs(r):	0	0	0	0

    writing force and moment coefficient files.

Time = 67

smoothSolver:  Solving for Ux, Initial residual = 0.736008, Final residual = 0.0645297, No Iterations 1
smoothSolver:  Solving for Uy, Initial residual = 0.594866, Final residual = 0.0577638, No Iterations 1
smoothSolver:  Solving for Uz, Initial residual = 0.538359, Final residual = 0.00780751, No Iterations 2
GAMG:  Solving for p, Initial residual = 0.0540701, Final residual = 0.00052883, No Iterations 2
time step continuity errors : sum local = 7.53545e-13, global = 1.39022e-13, cumulative = -2.56002e-12
smoothSolver:  Solving for omega, Initial residual = 7.03496e-09, Final residual = 7.03496e-09, No Iterations 0
smoothSolver:  Solving for k, Initial residual = 9.06009e-09, Final residual = 9.06009e-09, No Iterations 0
ExecutionTime = 0.32 s  ClockTime = 1 s

forceCoeffs forceCoeffs1 write:
    Coefficient	Total	Pressure	Viscous	Internal
    Cd:	0	0	0	0
    Cd(f):	0	0	0	0
    Cd(r):	0	0	0	0
    Cl:	0	0	0	0
    Cl(f):	0	0	0	0
    Cl(r):	0	0	0	0
    CmPitch:	0	0	0	0
    CmRoll:	0	0	0	0
    CmYaw:	0	0	0	0
    Cs:	0	0	0	0
    Cs(f):	0	0	0	0
    Cs(r):	0	0	0	0

    writing force and moment coefficient files.

Time = 68

[...]
    Cd(r):	0	0	0	0
    Cl:	0	0	0	0
    Cl(f):	0	0	0	0
    Cl(r):	0	0	0	0
    CmPitch:	0	0	0	0
    CmRoll:	0	0	0	0
    CmYaw:	0	0	0	0
    Cs:	0	0	0	0
    Cs(f):	0	0	0	0
    Cs(r):	0	0	0	0

    writing force and moment coefficient files.

Time = 484

smoothSolver:  Solving for Ux, Initial residual = 0.541633, Final residual = 0.266244, No Iterations 1000
smoothSolver:  Solving for Uy, Initial residual = 0.458954, Final residual = 0.0136726, No Iterations 2
smoothSolver:  Solving for Uz, Initial residual = 0.444998, Final residual = 0.0131545, No Iterations 2
GAMG:  Solving for p, Initial residual = 0.0604552, Final residual = 0.000386352, No Iterations 2
time step continuity errors : sum local = 1.59865e-15, global = -6.91679e-17, cumulative = -1.62931e-12
smoothSolver:  Solving for omega, Initial residual = 7.03495e-09, Final residual = 7.03495e-09, No Iterations 0
smoothSolver:  Solving for k, Initial residual = 9.06049e-09, Final residual = 9.06049e-09, No Iterations 0
ExecutionTime = 6.25 s  ClockTime = 7 s

forceCoeffs forceCoeffs1 write:
    Coefficient	Total	Pressure	Viscous	Internal
    Cd:	0	0	0	0
    Cd(f):	0	0	0	0
    Cd(r):	0	0	0	0
    Cl:	0	0	0	0
    Cl(f):	0	0	0	0
    Cl(r):	0	0	0	0
    CmPitch:	0	0	0	0
    CmRoll:	0	0	0	0
    CmYaw:	0	0	0	0
    Cs:	0	0	0	0
    Cs(f):	0	0	0	0
    Cs(r):	0	0	0	0

    writing force and moment coefficient files.

Time = 485

smoothSolver:  Solving for Ux, Initial residual = 0.525704, Final residual = 0.283791, No Iterations 1000
smoothSolver:  Solving for Uy, Initial residual = 0.458304, Final residual = 0.0126667, No Iterations 2
smoothSolver:  Solving for Uz, Initial residual = 0.447047, Final residual = 0.0138917, No Iterations 2
GAMG:  Solving for p, Initial residual = 0.0592315, Final residual = 0.000495596, No Iterations 2
time step continuity errors : sum local = 1.52554e-15, global = -2.36021e-17, cumulative = -1.62933e-12
smoothSolver:  Solving for omega, Initial residual = 7.03495e-09, Final residual = 7.03495e-09, No Iterations 0
smoothSolver:  Solving for k, Initial residual = 9.06049e-09, Final residual = 9.06049e-09, No Iterations 0
ExecutionTime = 6.27 s  ClockTime = 7 s

forceCoeffs forceCoeffs1 write:
    Coefficient	Total	Pressure	Viscous	Internal
    Cd:	0	0	0	0
    Cd(f):	0	0	0	0
    Cd(r):	0	0	0	0
    Cl:	0	0	0	0
    Cl(f):	0	0	0	0
    Cl(r):	0	0	0	0
    CmPitch:	0	0	0	0
    CmRoll:	0	0	0	0
    CmYaw:	0	0	0	0
    Cs:	0	0	0	0
    Cs(f):	0	0	0	0
    Cs(r):	0	0	0	0

    writing force and moment coefficient files.

Time = 486

smoothSolver:  Solving for Ux, Initial residual = 0.52625, Final residual = 0.2748, No Iterations 1000
smoothSolver:  Solving for Uy, Initial residual = 0.457003, Final residual = 0.0126409, No Iterations 2
smoothSolver:  Solving for Uz, Initial residual = 0.444833, Final residual = 0.0127173, No Iterations 2
GAMG:  Solving for p, Initial residual = 0.0585757, Final residual = 0.000500524, No Iterations 2
time step continuity errors : sum local = 1.47886e-15, global = -5.40958e-17, cumulative = -1.62939e-12
smoothSolver:  Solving for omega, Initial residual = 7.03495e-09, Final residual = 7.03495e-09, No Iterations 0
smoothSolver:  Solving for k, Initial residual = 9.06049e-09, Final residual = 9.06049e-09, No Iterations 0
ExecutionTime = 6.29 s  ClockTime = 7 s

forceCoeffs forceCoeffs1 write:
    Coefficient	Total	Pressure	Viscous	Internal
    Cd:	0	0	0	0
    Cd(f):	0	0	0	0
    Cd(r):	0	0	0	0
    Cl:	0	0	0	0
    Cl(f):	0	0	0	0
    Cl(r):	0	0	0	0
    CmPitch:	0	0	0	0
    CmRoll:	0	0	0	0
    CmYaw:	0	0	0	0
    Cs:	0	0	0	0
    Cs(f):	0	0	0	0
    Cs(r):	0	0	0	0

    writing force and moment coefficient files.

Time = 487

smoothSolver:  Solving for Ux, Initial residual = 0.526246, Final residual = 0.27495, No Iterations 1000
smoothSolver:  Solving for Uy, Initial residual = 0.445644, Final residual = 0.0142236, No Iterations 2
smoothSolver:  Solving for Uz, Initial residual = 0.441459, Final residual = 0.0123917, No Iterations 2
GAMG:  Solving for p, Initial residual = 0.0592591, Final residual = 0.000403204, No Iterations 2
time step continuity errors : sum local = 1.54028e-15, global = 2.74397e-17, cumulative = -1.62936e-12
smoothSolver:  Solving for omega, Initial residual = 7.03495e-09, Final residual = 7.03495e-09, No Iterations 0
smoothSolver:  Solving for k, Initial residual = 9.06049e-09, Final residual = 9.06049e-09, No Iterations 0
ExecutionTime = 6.3 s  ClockTime = 7 s

forceCoeffs forceCoeffs1 write:
    Coefficient	Total	Pressure	Viscous	Internal
    Cd:	0	0	0	0
    Cd(f):	0	0	0	0
    Cd(r):	0	0	0	0
    Cl:	0	0	0	0
    Cl(f):	0	0	0	0
    Cl(r):	0	0	0	0
    CmPitch:	0	0	0	0
    CmRoll:	0	0	0	0
    CmYaw:	0	0	0	0
    Cs:	0	0	0	0
    Cs(f):	0	0	0	0
    Cs(r):	0	0	0	0

    writing force and moment coefficient files.

Time = 488

smoothSolver:  Solving for Ux, Initial residual = 0.532899, Final residual = 0.274799, No Iterations 1000
smoothSolver:  Solving for Uy, Initial residual = 0.449105, Final residual = 0.013883, No Iterations 2
smoothSolver:  Solving for Uz, Initial residual = 0.442215, Final residual = 0.0122766, No Iterations 2
GAMG:  Solving for p, Initial residual = 0.0629118, Final residual = 0.000410029, No Iterations 2
time step continuity errors : sum local = 1.49866e-15, global = 4.72855e-17, cumulative = -1.62931e-12
smoothSolver:  Solving for omega, Initial residual = 7.03495e-09, Final residual = 7.03495e-09, No Iterations 0
smoothSolver:  Solving for k, Initial residual = 9.06049e-09, Final residual = 9.06049e-09, No Iterations 0
ExecutionTime = 6.32 s  ClockTime = 7 s

forceCoeffs forceCoeffs1 write:
    Coefficient	Total	Pressure	Viscous	Internal
    Cd:	0	0	0	0
    Cd(f):	0	0	0	0
    Cd(r):	0	0	0	0
    Cl:	0	0	0	0
    Cl(f):	0	0	0	0
    Cl(r):	0	0	0	0
    CmPitch:	0	0	0	0
    CmRoll:	0	0	0	0
    CmYaw:	0	0	0	0
    Cs:	0	0	0	0
    Cs(f):	0	0	0	0
    Cs(r):	0	0	0	0

    writing force and moment coefficient files.

Time = 489

smoothSolver:  Solving for Ux, Initial residual = 0.527936, Final residual = 0.274146, No Iterations 1000
smoothSolver:  Solving for Uy, Initial residual = 0.438776, Final residual = 0.0116276, No Iterations 2
smoothSolver:  Solving for Uz, Initial residual = 0.435701, Final residual = 0.0109121, No Iterations 2
GAMG:  Solving for p, Initial residual = 0.0624905, Final residual = 0.000487197, No Iterations 2
time step continuity errors : sum local = 1.52888e-15, global = 5.84999e-17, cumulative = -1.62926e-12
smoothSolver:  Solving for omega, Initial residual = 7.03495e-09, Final residual = 7.03495e-09, No Iterations 0
smoothSolver:  Solving for k, Initial residual = 9.06049e-09, Final residual = 9.06049e-09, No Iterations 0
ExecutionTime = 6.34 s  ClockTime = 7 s

forceCoeffs forceCoeffs1 write:
    Coefficient	Total	Pressure	Viscous	Internal
    Cd:	0	0	0	0
    Cd(f):	0	0	0	0
    Cd(r):	0	0	0	0
    Cl:	0	0	0	0
    Cl(f):	0	0	0	0
    Cl(r):	0	0	0	0
    CmPitch:	0	0	0	0
    CmRoll:	0	0	0	0
    CmYaw:	0	0	0	0
    Cs:	0	0	0	0
    Cs(f):	0	0	0	0
    Cs(r):	0	0	0	0

    writing force and moment coefficient files.

Time = 490

smoothSolver:  Solving for Ux, Initial residual = 0.522596, Final residual = 0.274888, No Iterations 1000
smoothSolver:  Solving for Uy, Initial residual = 0.437482, Final residual = 0.0164728, No Iterations 2
smoothSolver:  Solving for Uz, Initial residual = 0.435334, Final residual = 0.0128138, No Iterations 2
GAMG:  Solving for p, Initial residual = 0.0601264, Final residual = 0.000403193, No Iterations 2
time step continuity errors : sum local = 1.57598e-15, global = 7.09612e-17, cumulative = -1.62918e-12
smoothSolver:  Solving for omega, Initial residual = 7.03495e-09, Final residual = 7.03495e-09, No Iterations 0
smoothSolver:  Solving for k, Initial residual = 9.06049e-09, Final residual = 9.06049e-09, No Iterations 0
ExecutionTime = 6.35 s  ClockTime = 7 s

forceCoeffs forceCoeffs1 write:
    Coefficient	Total	Pressure	Viscous	Internal
    Cd:	0	0	0	0
    Cd(f):	0	0	0	0
    Cd(r):	0	0	0	0
    Cl:	0	0	0	0
    Cl(f):	0	0	0	0
    Cl(r):	0	0	0	0
    CmPitch:	0	0	0	0
    CmRoll:	0	0	0	0
    CmYaw:	0	0	0	0
    Cs:	0	0	0	0
    Cs(f):	0	0	0	0
    Cs(r):	0	0	0	0

    writing force and moment coefficient files.

Time = 491

smoothSolver:  Solving for Ux, Initial residual = 0.522453, Final residual = 0.264656, No Iterations 1000
smoothSolver:  Solving for Uy, Initial residual = 0.442237, Final residual = 0.0118023, No Iterations 2
smoothSolver:  Solving for Uz, Initial residual = 0.416741, Final residual = 0.0102603, No Iterations 2
GAMG:  Solving for p, Initial residual = 0.0623434, Final residual = 0.000371052, No Iterations 2
time step continuity errors : sum local = 1.63072e-15, global = -3.55334e-17, cumulative = -1.62922e-12
smoothSolver:  Solving for omega, Initial residual = 7.03495e-09, Final residual = 7.03495e-09, No Iterations 0
smoothSolver:  Solving for k, Initial residual = 9.06049e-09, Final residual = 9.06049e-09, No Iterations 0
ExecutionTime = 6.37 s  ClockTime = 7 s

forceCoeffs forceCoeffs1 write:
    Coefficient	Total	Pressure	Viscous	Internal
    Cd:	0	0	0	0
    Cd(f):	0	0	0	0
    Cd(r):	0	0	0	0
    Cl:	0	0	0	0
    Cl(f):	0	0	0	0
    Cl(r):	0	0	0	0
    CmPitch:	0	0	0	0
    CmRoll:	0	0	0	0
    CmYaw:	0	0	0	0
    Cs:	0	0	0	0
    Cs(f):	0	0	0	0
    Cs(r):	0	0	0	0

    writing force and moment coefficient files.

Time = 492

smoothSolver:  Solving for Ux, Initial residual = 0.51994, Final residual = 0.260887, No Iterations 1000
smoothSolver:  Solving for Uy, Initial residual = 0.472414, Final residual = 0.013264, No Iterations 2
smoothSolver:  Solving for Uz, Initial residual = 0.418711, Final residual = 0.0108401, No Iterations 2
GAMG:  Solving for p, Initial residual = 0.0595124, Final residual = 0.000161886, No Iterations 3
time step continuity errors : sum local = 1.66087e-15, global = 4.22961e-17, cumulative = -1.62918e-12
smoothSolver:  Solving for omega, Initial residual = 7.03495e-09, Final residual = 7.03495e-09, No Iterations 0
smoothSolver:  Solving for k, Initial residual = 9.06049e-09, Final residual = 9.06049e-09, No Iterations 0
ExecutionTime = 6.39 s  ClockTime = 7 s

forceCoeffs forceCoeffs1 write:
    Coefficient	Total	Pressure	Viscous	Internal
    Cd:	0	0	0	0
    Cd(f):	0	0	0	0
    Cd(r):	0	0	0	0
    Cl:	0	0	0	0
    Cl(f):	0	0	0	0
    Cl(r):	0	0	0	0
    CmPitch:	0	0	0	0
    CmRoll:	0	0	0	0
    CmYaw:	0	0	0	0
    Cs:	0	0	0	0
    Cs(f):	0	0	0	0
    Cs(r):	0	0	0	0

    writing force and moment coefficient files.

Time = 493

smoothSolver:  Solving for Ux, Initial residual = 0.542936, Final residual = 0.277574, No Iterations 1000
smoothSolver:  Solving for Uy, Initial residual = 0.457633, Final residual = 0.0146787, No Iterations 2
smoothSolver:  Solving for Uz, Initial residual = 0.414428, Final residual = 0.0138759, No Iterations 2
GAMG:  Solving for p, Initial residual = 0.0668451, Final residual = 0.000466038, No Iterations 2
time step continuity errors : sum local = 1.65715e-15, global = 4.93615e-17, cumulative = -1.62913e-12
smoothSolver:  Solving for omega, Initial residual = 7.03495e-09, Final residual = 7.03495e-09, No Iterations 0
smoothSolver:  Solving for k, Initial residual = 9.06049e-09, Final residual = 9.06049e-09, No Iterations 0
ExecutionTime = 6.41 s  ClockTime = 7 s

forceCoeffs forceCoeffs1 write:
    Coefficient	Total	Pressure	Viscous	Internal
    Cd:	0	0	0	0
    Cd(f):	0	0	0	0
    Cd(r):	0	0	0	0
    Cl:	0	0	0	0
    Cl(f):	0	0	0	0
    Cl(r):	0	0	0	0
    CmPitch:	0	0	0	0
    CmRoll:	0	0	0	0
    CmYaw:	0	0	0	0
    Cs:	0	0	0	0
    Cs(f):	0	0	0	0
    Cs(r):	0	0	0	0

    writing force and moment coefficient files.

Time = 494

smoothSolver:  Solving for Ux, Initial residual = 0.536666, Final residual = 0.279098, No Iterations 1000
smoothSolver:  Solving for Uy, Initial residual = 0.454825, Final residual = 0.0100764, No Iterations 2
smoothSolver:  Solving for Uz, Initial residual = 0.433977, Final residual = 0.0101656, No Iterations 2
GAMG:  Solving for p, Initial residual = 0.0661889, Final residual = 0.000539736, No Iterations 2
time step continuity errors : sum local = 1.59716e-15, global = -1.41347e-17, cumulative = -1.62914e-12
smoothSolver:  Solving for omega, Initial residual = 7.03495e-09, Final residual = 7.03495e-09, No Iterations 0
smoothSolver:  Solving for k, Initial residual = 9.06049e-09, Final residual = 9.06049e-09, No Iterations 0
ExecutionTime = 6.42 s  ClockTime = 7 s

forceCoeffs forceCoeffs1 write:
    Coefficient	Total	Pressure	Viscous	Internal
    Cd:	0	0	0	0
    Cd(f):	0	0	0	0
    Cd(r):	0	0	0	0
    Cl:	0	0	0	0
    Cl(f):	0	0	0	0
    Cl(r):	0	0	0	0
    CmPitch:	0	0	0	0
    CmRoll:	0	0	0	0
    CmYaw:	0	0	0	0
    Cs:	0	0	0	0
    Cs(f):	0	0	0	0
    Cs(r):	0	0	0	0

    writing force and moment coefficient files.

Time = 495

smoothSolver:  Solving for Ux, Initial residual = 0.529177, Final residual = 0.279976, No Iterations 1000
smoothSolver:  Solving for Uy, Initial residual = 0.45224, Final residual = 0.0109064, No Iterations 2
smoothSolver:  Solving for Uz, Initial residual = 0.432806, Final residual = 0.011756, No Iterations 2
GAMG:  Solving for p, Initial residual = 0.0623792, Final residual = 0.000391568, No Iterations 2
time step continuity errors : sum local = 1.62359e-15, global = -7.45229e-18, cumulative = -1.62915e-12
smoothSolver:  Solving for omega, Initial residual = 7.03495e-09, Final residual = 7.03495e-09, No Iterations 0
smoothSolver:  Solving for k, Initial residual = 9.06049e-09, Final residual = 9.06049e-09, No Iterations 0
ExecutionTime = 6.44 s  ClockTime = 7 s

forceCoeffs forceCoeffs1 write:
    Coefficient	Total	Pressure	Viscous	Internal
    Cd:	0	0	0	0
    Cd(f):	0	0	0	0
    Cd(r):	0	0	0	0
    Cl:	0	0	0	0
    Cl(f):	0	0	0	0
    Cl(r):	0	0	0	0
    CmPitch:	0	0	0	0
    CmRoll:	0	0	0	0
    CmYaw:	0	0	0	0
    Cs:	0	0	0	0
    Cs(f):	0	0	0	0
    Cs(r):	0	0	0	0

    writing force and moment coefficient files.

Time = 496

smoothSolver:  Solving for Ux, Initial residual = 0.526087, Final residual = 0.274288, No Iterations 1000
smoothSolver:  Solving for Uy, Initial residual = 0.470251, Final residual = 0.0131156, No Iterations 2
smoothSolver:  Solving for Uz, Initial residual = 0.430604, Final residual = 0.011395, No Iterations 2
GAMG:  Solving for p, Initial residual = 0.0619097, Final residual = 0.000598912, No Iterations 2
time step continuity errors : sum local = 1.53664e-15, global = -1.87039e-17, cumulative = -1.62917e-12
smoothSolver:  Solving for omega, Initial residual = 7.03495e-09, Final residual = 7.03495e-09, No Iterations 0
smoothSolver:  Solving for k, Initial residual = 9.06049e-09, Final residual = 9.06049e-09, No Iterations 0
ExecutionTime = 6.46 s  ClockTime = 7 s

forceCoeffs forceCoeffs1 write:
    Coefficient	Total	Pressure	Viscous	Internal
    Cd:	0	0	0	0
    Cd(f):	0	0	0	0
    Cd(r):	0	0	0	0
    Cl:	0	0	0	0
    Cl(f):	0	0	0	0
    Cl(r):	0	0	0	0
    CmPitch:	0	0	0	0
    CmRoll:	0	0	0	0
    CmYaw:	0	0	0	0
    Cs:	0	0	0	0
    Cs(f):	0	0	0	0
    Cs(r):	0	0	0	0

    writing force and moment coefficient files.

Time = 497

smoothSolver:  Solving for Ux, Initial residual = 0.51088, Final residual = 0.272418, No Iterations 1000
smoothSolver:  Solving for Uy, Initial residual = 0.455566, Final residual = 0.0120267, No Iterations 2
smoothSolver:  Solving for Uz, Initial residual = 0.429278, Final residual = 0.0118344, No Iterations 2
GAMG:  Solving for p, Initial residual = 0.0639602, Final residual = 0.00038647, No Iterations 2
time step continuity errors : sum local = 1.55531e-15, global = -8.41186e-17, cumulative = -1.62925e-12
smoothSolver:  Solving for omega, Initial residual = 7.03495e-09, Final residual = 7.03495e-09, No Iterations 0
smoothSolver:  Solving for k, Initial residual = 9.06049e-09, Final residual = 9.06049e-09, No Iterations 0
ExecutionTime = 6.48 s  ClockTime = 7 s

forceCoeffs forceCoeffs1 write:
    Coefficient	Total	Pressure	Viscous	Internal
    Cd:	0	0	0	0
    Cd(f):	0	0	0	0
    Cd(r):	0	0	0	0
    Cl:	0	0	0	0
    Cl(f):	0	0	0	0
    Cl(r):	0	0	0	0
    CmPitch:	0	0	0	0
    CmRoll:	0	0	0	0
    CmYaw:	0	0	0	0
    Cs:	0	0	0	0
    Cs(f):	0	0	0	0
    Cs(r):	0	0	0	0

    writing force and moment coefficient files.

Time = 498

smoothSolver:  Solving for Ux, Initial residual = 0.53836, Final residual = 0.290671, No Iterations 1000
smoothSolver:  Solving for Uy, Initial residual = 0.45364, Final residual = 0.0133872, No Iterations 2
smoothSolver:  Solving for Uz, Initial residual = 0.434163, Final residual = 0.0127162, No Iterations 2
GAMG:  Solving for p, Initial residual = 0.0612183, Final residual = 0.000597656, No Iterations 2
time step continuity errors : sum local = 1.54684e-15, global = 1.90715e-17, cumulative = -1.62923e-12
smoothSolver:  Solving for omega, Initial residual = 7.03495e-09, Final residual = 7.03495e-09, No Iterations 0
smoothSolver:  Solving for k, Initial residual = 9.06049e-09, Final residual = 9.06049e-09, No Iterations 0
ExecutionTime = 6.5 s  ClockTime = 7 s

forceCoeffs forceCoeffs1 write:
    Coefficient	Total	Pressure	Viscous	Internal
    Cd:	0	0	0	0
    Cd(f):	0	0	0	0
    Cd(r):	0	0	0	0
    Cl:	0	0	0	0
    Cl(f):	0	0	0	0
    Cl(r):	0	0	0	0
    CmPitch:	0	0	0	0
    CmRoll:	0	0	0	0
    CmYaw:	0	0	0	0
    Cs:	0	0	0	0
    Cs(f):	0	0	0	0
    Cs(r):	0	0	0	0

    writing force and moment coefficient files.

Time = 499

smoothSolver:  Solving for Ux, Initial residual = 0.527375, Final residual = 0.279654, No Iterations 1000
smoothSolver:  Solving for Uy, Initial residual = 0.44908, Final residual = 0.0145681, No Iterations 2
smoothSolver:  Solving for Uz, Initial residual = 0.435283, Final residual = 0.0117137, No Iterations 2
GAMG:  Solving for p, Initial residual = 0.0652388, Final residual = 0.000353684, No Iterations 2
time step continuity errors : sum local = 1.57681e-15, global = -2.34564e-17, cumulative = -1.62926e-12
smoothSolver:  Solving for omega, Initial residual = 7.03495e-09, Final residual = 7.03495e-09, No Iterations 0
smoothSolver:  Solving for k, Initial residual = 9.06049e-09, Final residual = 9.06049e-09, No Iterations 0
ExecutionTime = 6.51 s  ClockTime = 7 s

forceCoeffs forceCoeffs1 write:
    Coefficient	Total	Pressure	Viscous	Internal
    Cd:	0	0	0	0
    Cd(f):	0	0	0	0
    Cd(r):	0	0	0	0
    Cl:	0	0	0	0
    Cl(f):	0	0	0	0
    Cl(r):	0	0	0	0
    CmPitch:	0	0	0	0
    CmRoll:	0	0	0	0
    CmYaw:	0	0	0	0
    Cs:	0	0	0	0
    Cs(f):	0	0	0	0
    Cs(r):	0	0	0	0

    writing force and moment coefficient files.

Time = 500

smoothSolver:  Solving for Ux, Initial residual = 0.545012, Final residual = 0.27967, No Iterations 1000
smoothSolver:  Solving for Uy, Initial residual = 0.457031, Final residual = 0.0134601, No Iterations 2
smoothSolver:  Solving for Uz, Initial residual = 0.432567, Final residual = 0.0134735, No Iterations 2
GAMG:  Solving for p, Initial residual = 0.0584748, Final residual = 0.000437485, No Iterations 2
time step continuity errors : sum local = 1.56195e-15, global = -5.5905e-18, cumulative = -1.62926e-12
smoothSolver:  Solving for omega, Initial residual = 7.03495e-09, Final residual = 7.03495e-09, No Iterations 0
smoothSolver:  Solving for k, Initial residual = 9.06049e-09, Final residual = 9.06049e-09, No Iterations 0
ExecutionTime = 6.53 s  ClockTime = 7 s

streamLine streamLines write:
    seeded 20 particles
    Tracks:20
    Total samples:1720
nearWallFields near write:
    Sampling fields to 500
    Writing sampled fields to 500
wallBoundedStreamLine wallBoundedStreamLines write:
wallBoundedStreamLine : seeded 0 particles.
    Tracks:0
    Total samples:0
forceCoeffs forceCoeffs1 write:
    Coefficient	Total	Pressure	Viscous	Internal
    Cd:	0	0	0	0
    Cd(f):	0	0	0	0
    Cd(r):	0	0	0	0
    Cl:	0	0	0	0
    Cl(f):	0	0	0	0
    Cl(r):	0	0	0	0
    CmPitch:	0	0	0	0
    CmRoll:	0	0	0	0
    CmYaw:	0	0	0	0
    Cs:	0	0	0	0
    Cs(f):	0	0	0	0
    Cs(r):	0	0	0	0

    writing force and moment coefficient files.

ensightWrite ensightWrite write: ( k omega p U )
End

Finalising parallel run
