/*---------------------------------------------------------------------------*\
| =========                 |                                                 |
| \\      /  F ield         | OpenFOAM: The Open Source CFD Toolbox           |
|  \\    /   O peration     | Version:  2312                                  |
|   \\  /    A nd           | Website:  www.openfoam.com                      |
|    \\/     M anipulation  |                                                 |
\*---------------------------------------------------------------------------*/
Build  : _1d8f0d55f7-20231221 OPENFOAM=2312 version=v2312
Arch   : "LSB;label=32;scalar=64"
Exec   : simpleFoam -parallel -decomposeParDict system/decomposeParDict.6
Date   : May 26 2024
Time   : 16:10:47
Host   : aion-0180
PID    : 2523236
I/O    : uncollated
Case   : /mnt/aiongpfs/users/pvares/OpenFOAM/openfoam-OpenFOAM-v2312-tutorials-incompressible-simpleFoam-motorBike/tutorials/incompressible/simpleFoam/motorBike
nProcs : 6
Hosts  :
(
    (aion-0180 6)
)
Pstream initialized with:
    floatTransfer      : false
    nProcsSimpleSum    : 0
    nonBlockingExchange: 0 (tuning: 0)
    exchange algorithm : 0
    commsType          : nonBlocking
    polling iterations : 0
trapFpe: Floating point exception trapping enabled (FOAM_SIGFPE).
fileModificationChecking : Monitoring run-time modified files using timeStampMaster (fileModificationSkew 5, maxFileModificationPolls 20)
allowSystemOperations : Allowing user-supplied system call operations

// * * * * * * * * * * * * * * * * * * * * * * * * * * * * * * * * * * * * * //
Create time

Create mesh for time = 0


SIMPLE: no convergence criteria found. Calculations will run for 500 steps.

Reading field p

Reading field U

Reading/calculating face flux field phi

Selecting incompressible transport model Newtonian
Selecting turbulence model type RAS
Selecting RAS turbulence model kOmegaSST
Selecting patchDistMethod meshWave
RAS
{
    RASModel        kOmegaSST;
    turbulence      on;
    printCoeffs     on;
    alphaK1         0.85;
    alphaK2         1;
    alphaOmega1     0.5;
    alphaOmega2     0.856;
    gamma1          0.555556;
    gamma2          0.44;
    beta1           0.075;
    beta2           0.0828;
    betaStar        0.09;
    a1              0.31;
    b1              1;
    c1              10;
    F3              false;
    decayControl    false;
    kInf            0;
    omegaInf        0;
}

No MRF models present

No finite volume options present

Starting time loop

streamLine streamLines:
    Employing velocity field U
    automatic track length specified through number of sub cycles : 5

--> FOAM Warning : 
    From Foam::labelHashSet Foam::polyBoundaryMesh::patchSet(const Foam::UList<Foam::wordRe>&, bool, bool) const
    in file meshes/polyMesh/polyBoundaryMesh/polyBoundaryMesh.C at line 1098
    Cannot find any patch or group names matching motorBikeGroup
nearWallFields near: Sampling 1 fields
wallBoundedStreamLine wallBoundedStreamLines:
    Employing velocity field UNear
Sampled surface:
    yNormal -> vtk
        sampledCuttingPlane: yNormal : plane:(0 1 0) (0 0 0) offsets:(0)

forceCoeffs forceCoeffs1:
--> FOAM Warning : 
    From Foam::labelHashSet Foam::polyBoundaryMesh::patchSet(const Foam::UList<Foam::wordRe>&, bool, bool) const
    in file meshes/polyMesh/polyBoundaryMesh/polyBoundaryMesh.C at line 1098
    Cannot find any patch or group names matching motorBikeGroup
    rho: rhoInf
    Freestream density (rhoInf) set to 1
    Not including porosity effects
    magUInf: 20
    lRef   : 1.42
    Aref   : 0.75
    rhoInf : 1
    Selecting all coefficients
    - Drag force: Cd
    - Drag force front: Cd(f)
    - Drag force rear: Cd(r)
    - Lift force: Cl
    - Lift force front: Cl(f)
    - Lift force rear: Cl(r)
    - Pitch moment: CmPitch
    - Roll moment: CmRoll
    - Yaw moment: CmYaw
    - Side force: Cs
    - Side force front: Cs(f)
    - Side force rear: Cs(r)


Time = 1

smoothSolver:  Solving for Ux, Initial residual = 0.438809, Final residual = 0.39293, No Iterations 1000
smoothSolver:  Solving for Uy, Initial residual = 1, Final residual = 0.041124, No Iterations 2
smoothSolver:  Solving for Uz, Initial residual = 1, Final residual = 0.0486753, No Iterations 2
GAMG:  Solving for p, Initial residual = 1, Final residual = 0.00333623, No Iterations 3
time step continuity errors : sum local = 1.23718e-15, global = 1.55534e-17, cumulative = 1.55534e-17
smoothSolver:  Solving for omega, Initial residual = 0.00958776, Final residual = 0.00019625, No Iterations 2
smoothSolver:  Solving for k, Initial residual = 1, Final residual = 0.0222852, No Iterations 2
ExecutionTime = 0.41 s  ClockTime = 0 s

forceCoeffs forceCoeffs1 write:
    Coefficient	Total	Pressure	Viscous	Internal
    Cd:	0	0	0	0
    Cd(f):	0	0	0	0
    Cd(r):	0	0	0	0
    Cl:	0	0	0	0
    Cl(f):	0	0	0	0
    Cl(r):	0	0	0	0
    CmPitch:	0	0	0	0
    CmRoll:	0	0	0	0
    CmYaw:	0	0	0	0
    Cs:	0	0	0	0
    Cs(f):	0	0	0	0
    Cs(r):	0	0	0	0

    writing force and moment coefficient files.

Time = 2

smoothSolver:  Solving for Ux, Initial residual = 0.548464, Final residual = 0.363921, No Iterations 1000
smoothSolver:  Solving for Uy, Initial residual = 0.590094, Final residual = 0.0196368, No Iterations 2
smoothSolver:  Solving for Uz, Initial residual = 0.588837, Final residual = 0.0194943, No Iterations 2
GAMG:  Solving for p, Initial residual = 0.273406, Final residual = 0.00247266, No Iterations 2
time step continuity errors : sum local = 1.43869e-15, global = -6.09306e-19, cumulative = 1.49441e-17
smoothSolver:  Solving for omega, Initial residual = 0.00887651, Final residual = 0.000169718, No Iterations 2
smoothSolver:  Solving for k, Initial residual = 0.672002, Final residual = 0.0136416, No Iterations 2
ExecutionTime = 0.44 s  ClockTime = 0 s

forceCoeffs forceCoeffs1 write:
    Coefficient	Total	Pressure	Viscous	Internal
    Cd:	0	0	0	0
    Cd(f):	0	0	0	0
    Cd(r):	0	0	0	0
    Cl:	0	0	0	0
    Cl(f):	0	0	0	0
    Cl(r):	0	0	0	0
    CmPitch:	0	0	0	0
    CmRoll:	0	0	0	0
    CmYaw:	0	0	0	0
    Cs:	0	0	0	0
    Cs(f):	0	0	0	0
    Cs(r):	0	0	0	0

    writing force and moment coefficient files.

Time = 3

smoothSolver:  Solving for Ux, Initial residual = 0.583797, Final residual = 0.296626, No Iterations 1000
smoothSolver:  Solving for Uy, Initial residual = 0.59148, Final residual = 0.0162581, No Iterations 2
smoothSolver:  Solving for Uz, Initial residual = 0.598706, Final residual = 0.0192134, No Iterations 2
GAMG:  Solving for p, Initial residual = 0.173872, Final residual = 0.000636539, No Iterations 3
time step continuity errors : sum local = 1.57661e-15, global = 3.85843e-17, cumulative = 5.35284e-17
smoothSolver:  Solving for omega, Initial residual = 0.007744, Final residual = 0.00013268, No Iterations 2
smoothSolver:  Solving for k, Initial residual = 0.439068, Final residual = 0.00819709, No Iterations 2
ExecutionTime = 0.48 s  ClockTime = 0 s

forceCoeffs forceCoeffs1 write:
    Coefficient	Total	Pressure	Viscous	Internal
    Cd:	0	0	0	0
    Cd(f):	0	0	0	0
    Cd(r):	0	0	0	0
    Cl:	0	0	0	0
    Cl(f):	0	0	0	0
    Cl(r):	0	0	0	0
    CmPitch:	0	0	0	0
    CmRoll:	0	0	0	0
    CmYaw:	0	0	0	0
    Cs:	0	0	0	0
    Cs(f):	0	0	0	0
    Cs(r):	0	0	0	0

    writing force and moment coefficient files.

Time = 4

smoothSolver:  Solving for Ux, Initial residual = 0.597193, Final residual = 0.288396, No Iterations 1000
smoothSolver:  Solving for Uy, Initial residual = 0.589844, Final residual = 0.0154014, No Iterations 2
smoothSolver:  Solving for Uz, Initial residual = 0.57975, Final residual = 0.017519, No Iterations 2
GAMG:  Solving for p, Initial residual = 0.152814, Final residual = 0.00135202, No Iterations 2
time step continuity errors : sum local = 1.61405e-15, global = 2.53419e-19, cumulative = 5.37818e-17
smoothSolver:  Solving for omega, Initial residual = 0.00662023, Final residual = 9.83703e-05, No Iterations 2
smoothSolver:  Solving for k, Initial residual = 0.282452, Final residual = 0.00470212, No Iterations 2
ExecutionTime = 0.52 s  ClockTime = 0 s

forceCoeffs forceCoeffs1 write:
    Coefficient	Total	Pressure	Viscous	Internal
    Cd:	0	0	0	0
    Cd(f):	0	0	0	0
    Cd(r):	0	0	0	0
    Cl:	0	0	0	0
    Cl(f):	0	0	0	0
    Cl(r):	0	0	0	0
    CmPitch:	0	0	0	0
    CmRoll:	0	0	0	0
    CmYaw:	0	0	0	0
    Cs:	0	0	0	0
    Cs(f):	0	0	0	0
    Cs(r):	0	0	0	0

    writing force and moment coefficient files.

Time = 5

smoothSolver:  Solving for Ux, Initial residual = 0.587943, Final residual = 0.275535, No Iterations 1000
smoothSolver:  Solving for Uy, Initial residual = 0.58132, Final residual = 0.0193343, No Iterations 2
smoothSolver:  Solving for Uz, Initial residual = 0.584908, Final residual = 0.0176438, No Iterations 2
GAMG:  Solving for p, Initial residual = 0.143516, Final residual = 0.000919517, No Iterations 2
time step continuity errors : sum local = 1.55603e-15, global = 3.83869e-17, cumulative = 9.21688e-17
smoothSolver:  Solving for omega, Initial residual = 0.00552475, Final residual = 6.99479e-05, No Iterations 2
smoothSolver:  Solving for k, Initial residual = 0.184746, Final residual = 0.00269559, No Iterations 2
ExecutionTime = 0.55 s  ClockTime = 0 s

forceCoeffs forceCoeffs1 write:
    Coefficient	Total	Pressure	Viscous	Internal
    Cd:	0	0	0	0
    Cd(f):	0	0	0	0
    Cd(r):	0	0	0	0
    Cl:	0	0	0	0
    Cl(f):	0	0	0	0
    Cl(r):	0	0	0	0
    CmPitch:	0	0	0	0
    CmRoll:	0	0	0	0
    CmYaw:	0	0	0	0
    Cs:	0	0	0	0
    Cs(f):	0	0	0	0
    Cs(r):	0	0	0	0

    writing force and moment coefficient files.

Time = 6

smoothSolver:  Solving for Ux, Initial residual = 0.563926, Final residual = 0.292218, No Iterations 1000
smoothSolver:  Solving for Uy, Initial residual = 0.579831, Final residual = 0.0209245, No Iterations 2
smoothSolver:  Solving for Uz, Initial residual = 0.56646, Final residual = 0.0155556, No Iterations 2
GAMG:  Solving for p, Initial residual = 0.152467, Final residual = 0.00104594, No Iterations 2
time step continuity errors : sum local = 1.57781e-15, global = -7.82312e-17, cumulative = 1.39376e-17
smoothSolver:  Solving for omega, Initial residual = 0.00448615, Final residual = 4.80596e-05, No Iterations 2
smoothSolver:  Solving for k, Initial residual = 0.123746, Final residual = 0.00157009, No Iterations 2
ExecutionTime = 0.58 s  ClockTime = 0 s

forceCoeffs forceCoeffs1 write:
    Coefficient	Total	Pressure	Viscous	Internal
    Cd:	0	0	0	0
    Cd(f):	0	0	0	0
    Cd(r):	0	0	0	0
    Cl:	0	0	0	0
    Cl(f):	0	0	0	0
    Cl(r):	0	0	0	0
    CmPitch:	0	0	0	0
    CmRoll:	0	0	0	0
    CmYaw:	0	0	0	0
    Cs:	0	0	0	0
    Cs(f):	0	0	0	0
    Cs(r):	0	0	0	0

    writing force and moment coefficient files.

Time = 7

smoothSolver:  Solving for Ux, Initial residual = 0.574824, Final residual = 0.289084, No Iterations 1000
smoothSolver:  Solving for Uy, Initial residual = 0.588663, Final residual = 0.0173488, No Iterations 2
smoothSolver:  Solving for Uz, Initial residual = 0.587614, Final residual = 0.0180346, No Iterations 2
GAMG:  Solving for p, Initial residual = 0.13584, Final residual = 0.000998188, No Iterations 2
time step continuity errors : sum local = 1.5771e-15, global = 3.4476e-17, cumulative = 4.84136e-17
smoothSolver:  Solving for omega, Initial residual = 0.00353643, Final residual = 3.20402e-05, No Iterations 2
smoothSolver:  Solving for k, Initial residual = 0.0842543, Final residual = 0.000927411, No Iterations 2
ExecutionTime = 0.61 s  ClockTime = 0 s

forceCoeffs forceCoeffs1 write:
    Coefficient	Total	Pressure	Viscous	Internal
    Cd:	0	0	0	0
    Cd(f):	0	0	0	0
    Cd(r):	0	0	0	0
    Cl:	0	0	0	0
    Cl(f):	0	0	0	0
    Cl(r):	0	0	0	0
    CmPitch:	0	0	0	0
    CmRoll:	0	0	0	0
    CmYaw:	0	0	0	0
    Cs:	0	0	0	0
    Cs(f):	0	0	0	0
    Cs(r):	0	0	0	0

    writing force and moment coefficient files.

Time = 8

smoothSolver:  Solving for Ux, Initial residual = 0.593359, Final residual = 0.281121, No Iterations 1000
smoothSolver:  Solving for Uy, Initial residual = 0.586494, Final residual = 0.0534357, No Iterations 1
smoothSolver:  Solving for Uz, Initial residual = 0.564495, Final residual = 0.0161584, No Iterations 2
GAMG:  Solving for p, Initial residual = 0.138456, Final residual = 0.00134166, No Iterations 2
time step continuity errors : sum local = 1.57555e-15, global = -4.88334e-17, cumulative = -4.19817e-19
smoothSolver:  Solving for omega, Initial residual = 0.00270293, Final residual = 2.07699e-05, No Iterations 2
smoothSolver:  Solving for k, Initial residual = 0.0577851, Final residual = 0.00055208, No Iterations 2
ExecutionTime = 0.65 s  ClockTime = 0 s

forceCoeffs forceCoeffs1 write:
    Coefficient	Total	Pressure	Viscous	Internal
    Cd:	0	0	0	0
    Cd(f):	0	0	0	0
    Cd(r):	0	0	0	0
    Cl:	0	0	0	0
    Cl(f):	0	0	0	0
    Cl(r):	0	0	0	0
    CmPitch:	0	0	0	0
    CmRoll:	0	0	0	0
    CmYaw:	0	0	0	0
    Cs:	0	0	0	0
    Cs(f):	0	0	0	0
    Cs(r):	0	0	0	0

    writing force and moment coefficient files.

Time = 9

smoothSolver:  Solving for Ux, Initial residual = 0.593174, Final residual = 0.280158, No Iterations 1000
smoothSolver:  Solving for Uy, Initial residual = 0.567197, Final residual = 0.0134138, No Iterations 2
smoothSolver:  Solving for Uz, Initial residual = 0.554954, Final residual = 0.0127978, No Iterations 2
GAMG:  Solving for p, Initial residual = 0.118197, Final residual = 0.000745085, No Iterations 2
time step continuity errors : sum local = 1.55057e-15, global = 5.40777e-17, cumulative = 5.36579e-17
smoothSolver:  Solving for omega, Initial residual = 0.00200221, Final residual = 1.3107e-05, No Iterations 2
smoothSolver:  Solving for k, Initial residual = 0.0395753, Final residual = 0.00032882, No Iterations 2
ExecutionTime = 0.67 s  ClockTime = 1 s

forceCoeffs forceCoeffs1 write:
    Coefficient	Total	Pressure	Viscous	Internal
    Cd:	0	0	0	0
    Cd(f):	0	0	0	0
    Cd(r):	0	0	0	0
    Cl:	0	0	0	0
    Cl(f):	0	0	0	0
    Cl(r):	0	0	0	0
    CmPitch:	0	0	0	0
    CmRoll:	0	0	0	0
    CmYaw:	0	0	0	0
    Cs:	0	0	0	0
    Cs(f):	0	0	0	0
    Cs(r):	0	0	0	0

    writing force and moment coefficient files.

Time = 10

smoothSolver:  Solving for Ux, Initial residual = 0.589718, Final residual = 0.282794, No Iterations 1000
smoothSolver:  Solving for Uy, Initial residual = 0.565484, Final residual = 0.0171997, No Iterations 2
smoothSolver:  Solving for Uz, Initial residual = 0.560721, Final residual = 0.0137225, No Iterations 2
GAMG:  Solving for p, Initial residual = 0.129929, Final residual = 0.000756672, No Iterations 2
time step continuity errors : sum local = 1.55525e-15, global = 4.73124e-17, cumulative = 1.0097e-16
smoothSolver:  Solving for omega, Initial residual = 0.00143782, Final residual = 8.0594e-06, No Iterations 2
smoothSolver:  Solving for k, Initial residual = 0.0268831, Final residual = 0.000194779, No Iterations 2
ExecutionTime = 0.7 s  ClockTime = 1 s

forceCoeffs forceCoeffs1 write:
    Coefficient	Total	Pressure	Viscous	Internal
    Cd:	0	0	0	0
    Cd(f):	0	0	0	0
    Cd(r):	0	0	0	0
    Cl:	0	0	0	0
    Cl(f):	0	0	0	0
    Cl(r):	0	0	0	0
    CmPitch:	0	0	0	0
    CmRoll:	0	0	0	0
    CmYaw:	0	0	0	0
    Cs:	0	0	0	0
    Cs(f):	0	0	0	0
    Cs(r):	0	0	0	0

    writing force and moment coefficient files.

Time = 11

smoothSolver:  Solving for Ux, Initial residual = 0.595894, Final residual = 0.288192, No Iterations 1000
smoothSolver:  Solving for Uy, Initial residual = 0.584002, Final residual = 0.0168256, No Iterations 2
smoothSolver:  Solving for Uz, Initial residual = 0.580118, Final residual = 0.0155832, No Iterations 2
GAMG:  Solving for p, Initial residual = 0.133333, Final residual = 0.0012375, No Iterations 2
time step continuity errors : sum local = 1.58108e-15, global = 1.01491e-16, cumulative = 2.02461e-16
smoothSolver:  Solving for omega, Initial residual = 0.00100171, Final residual = 4.83374e-06, No Iterations 2
smoothSolver:  Solving for k, Initial residual = 0.0180401, Final residual = 0.000114354, No Iterations 2
ExecutionTime = 0.74 s  ClockTime = 1 s

forceCoeffs forceCoeffs1 write:
    Coefficient	Total	Pressure	Viscous	Internal
    Cd:	0	0	0	0
    Cd(f):	0	0	0	0
    Cd(r):	0	0	0	0
    Cl:	0	0	0	0
    Cl(f):	0	0	0	0
    Cl(r):	0	0	0	0
    CmPitch:	0	0	0	0
    CmRoll:	0	0	0	0
    CmYaw:	0	0	0	0
    Cs:	0	0	0	0
    Cs(f):	0	0	0	0
    Cs(r):	0	0	0	0

    writing force and moment coefficient files.

Time = 12

smoothSolver:  Solving for Ux, Initial residual = 0.596434, Final residual = 0.278768, No Iterations 1000
smoothSolver:  Solving for Uy, Initial residual = 0.574515, Final residual = 0.0149143, No Iterations 2
smoothSolver:  Solving for Uz, Initial residual = 0.564434, Final residual = 0.0164618, No Iterations 2
GAMG:  Solving for p, Initial residual = 0.115668, Final residual = 0.00115596, No Iterations 2
time step continuity errors : sum local = 1.59883e-15, global = -5.56609e-17, cumulative = 1.468e-16
smoothSolver:  Solving for omega, Initial residual = 0.000677747, Final residual = 6.37737e-05, No Iterations 1
smoothSolver:  Solving for k, Initial residual = 0.0119306, Final residual = 6.63938e-05, No Iterations 2
ExecutionTime = 0.77 s  ClockTime = 1 s

forceCoeffs forceCoeffs1 write:
    Coefficient	Total	Pressure	Viscous	Internal
    Cd:	0	0	0	0
    Cd(f):	0	0	0	0
    Cd(r):	0	0	0	0
    Cl:	0	0	0	0
    Cl(f):	0	0	0	0
    Cl(r):	0	0	0	0
    CmPitch:	0	0	0	0
    CmRoll:	0	0	0	0
    CmYaw:	0	0	0	0
    Cs:	0	0	0	0
    Cs(f):	0	0	0	0
    Cs(r):	0	0	0	0

    writing force and moment coefficient files.

Time = 13

smoothSolver:  Solving for Ux, Initial residual = 0.570718, Final residual = 0.283657, No Iterations 1000
smoothSolver:  Solving for Uy, Initial residual = 0.56616, Final residual = 0.0146171, No Iterations 2
smoothSolver:  Solving for Uz, Initial residual = 0.546032, Final residual = 0.0133427, No Iterations 2
GAMG:  Solving for p, Initial residual = 0.105791, Final residual = 0.000836151, No Iterations 2
time step continuity errors : sum local = 1.50275e-15, global = -7.88506e-17, cumulative = 6.79493e-17
smoothSolver:  Solving for omega, Initial residual = 0.000459488, Final residual = 3.82695e-05, No Iterations 1
smoothSolver:  Solving for k, Initial residual = 0.00774689, Final residual = 0.000716016, No Iterations 1
ExecutionTime = 0.8 s  ClockTime = 1 s

forceCoeffs forceCoeffs1 write:
    Coefficient	Total	Pressure	Viscous	Internal
    Cd:	0	0	0	0
    Cd(f):	0	0	0	0
    Cd(r):	0	0	0	0
    Cl:	0	0	0	0
    Cl(f):	0	0	0	0
    Cl(r):	0	0	0	0
    CmPitch:	0	0	0	0
    CmRoll:	0	0	0	0
    CmYaw:	0	0	0	0
    Cs:	0	0	0	0
    Cs(f):	0	0	0	0
    Cs(r):	0	0	0	0

    writing force and moment coefficient files.

Time = 14

smoothSolver:  Solving for Ux, Initial residual = 0.580103, Final residual = 0.283657, No Iterations 1000
smoothSolver:  Solving for Uy, Initial residual = 0.538827, Final residual = 0.0157129, No Iterations 2
smoothSolver:  Solving for Uz, Initial residual = 0.545403, Final residual = 0.0128025, No Iterations 2
GAMG:  Solving for p, Initial residual = 0.104253, Final residual = 0.000673572, No Iterations 2
time step continuity errors : sum local = 1.5845e-15, global = 1.40201e-18, cumulative = 6.93513e-17
smoothSolver:  Solving for omega, Initial residual = 0.000306467, Final residual = 2.28596e-05, No Iterations 1
smoothSolver:  Solving for k, Initial residual = 0.0050889, Final residual = 0.000421954, No Iterations 1
ExecutionTime = 0.84 s  ClockTime = 1 s

forceCoeffs forceCoeffs1 write:
    Coefficient	Total	Pressure	Viscous	Internal
    Cd:	0	0	0	0
    Cd(f):	0	0	0	0
    Cd(r):	0	0	0	0
    Cl:	0	0	0	0
    Cl(f):	0	0	0	0
    Cl(r):	0	0	0	0
    CmPitch:	0	0	0	0
    CmRoll:	0	0	0	0
    CmYaw:	0	0	0	0
    Cs:	0	0	0	0
    Cs(f):	0	0	0	0
    Cs(r):	0	0	0	0

    writing force and moment coefficient files.

Time = 15

smoothSolver:  Solving for Ux, Initial residual = 0.581259, Final residual = 0.292995, No Iterations 1000
smoothSolver:  Solving for Uy, Initial residual = 0.566009, Final residual = 0.0172115, No Iterations 2
smoothSolver:  Solving for Uz, Initial residual = 0.56828, Final residual = 0.0158108, No Iterations 2
GAMG:  Solving for p, Initial residual = 0.113534, Final residual = 0.000975289, No Iterations 2
time step continuity errors : sum local = 1.61111e-15, global = -8.33308e-19, cumulative = 6.8518e-17
smoothSolver:  Solving for omega, Initial residual = 0.000202267, Final residual = 1.36212e-05, No Iterations 1
smoothSolver:  Solving for k, Initial residual = 0.00331239, Final residual = 0.00024999, No Iterations 1
ExecutionTime = 0.87 s  ClockTime = 1 s

forceCoeffs forceCoeffs1 write:
    Coefficient	Total	Pressure	Viscous	Internal
    Cd:	0	0	0	0
    Cd(f):	0	0	0	0
    Cd(r):	0	0	0	0
    Cl:	0	0	0	0
    Cl(f):	0	0	0	0
    Cl(r):	0	0	0	0
    CmPitch:	0	0	0	0
    CmRoll:	0	0	0	0
    CmYaw:	0	0	0	0
    Cs:	0	0	0	0
    Cs(f):	0	0	0	0
    Cs(r):	0	0	0	0

    writing force and moment coefficient files.

Time = 16

smoothSolver:  Solving for Ux, Initial residual = 0.587278, Final residual = 0.286753, No Iterations 1000
smoothSolver:  Solving for Uy, Initial residual = 0.56978, Final residual = 0.0173582, No Iterations 2
smoothSolver:  Solving for Uz, Initial residual = 0.578815, Final residual = 0.0118111, No Iterations 2
GAMG:  Solving for p, Initial residual = 0.0978981, Final residual = 0.000784419, No Iterations 2
time step continuity errors : sum local = 1.49062e-15, global = 2.3772e-17, cumulative = 9.229e-17
smoothSolver:  Solving for omega, Initial residual = 0.000132015, Final residual = 8.091e-06, No Iterations 1
smoothSolver:  Solving for k, Initial residual = 0.002142, Final residual = 0.000148224, No Iterations 1
ExecutionTime = 0.91 s  ClockTime = 1 s

forceCoeffs forceCoeffs1 write:
    Coefficient	Total	Pressure	Viscous	Internal
    Cd:	0	0	0	0
    Cd(f):	0	0	0	0
    Cd(r):	0	0	0	0
    Cl:	0	0	0	0
    Cl(f):	0	0	0	0
    Cl(r):	0	0	0	0
    CmPitch:	0	0	0	0
    CmRoll:	0	0	0	0
    CmYaw:	0	0	0	0
    Cs:	0	0	0	0
    Cs(f):	0	0	0	0
    Cs(r):	0	0	0	0

    writing force and moment coefficient files.

Time = 17

smoothSolver:  Solving for Ux, Initial residual = 0.580861, Final residual = 0.291323, No Iterations 1000
smoothSolver:  Solving for Uy, Initial residual = 0.56147, Final residual = 0.0125159, No Iterations 2
smoothSolver:  Solving for Uz, Initial residual = 0.566315, Final residual = 0.0149586, No Iterations 2
GAMG:  Solving for p, Initial residual = 0.107347, Final residual = 0.000427598, No Iterations 3
time step continuity errors : sum local = 1.63243e-15, global = 6.40432e-17, cumulative = 1.56333e-16
smoothSolver:  Solving for omega, Initial residual = 8.4935e-05, Final residual = 4.77938e-06, No Iterations 1
smoothSolver:  Solving for k, Initial residual = 0.00137404, Final residual = 8.76746e-05, No Iterations 1
ExecutionTime = 0.95 s  ClockTime = 1 s

forceCoeffs forceCoeffs1 write:
    Coefficient	Total	Pressure	Viscous	Internal
    Cd:	0	0	0	0
    Cd(f):	0	0	0	0
    Cd(r):	0	0	0	0
    Cl:	0	0	0	0
    Cl(f):	0	0	0	0
    Cl(r):	0	0	0	0
    CmPitch:	0	0	0	0
    CmRoll:	0	0	0	0
    CmYaw:	0	0	0	0
    Cs:	0	0	0	0
    Cs(f):	0	0	0	0
    Cs(r):	0	0	0	0

    writing force and moment coefficient files.

Time = 18

smoothSolver:  Solving for Ux, Initial residual = 0.589791, Final residual = 0.29024, No Iterations 1000
smoothSolver:  Solving for Uy, Initial residual = 0.558674, Final residual = 0.0183784, No Iterations 2
smoothSolver:  Solving for Uz, Initial residual = 0.55157, Final residual = 0.0224931, No Iterations 2
GAMG:  Solving for p, Initial residual = 0.100786, Final residual = 0.000833111, No Iterations 2
time step continuity errors : sum local = 1.57797e-15, global = 7.79478e-19, cumulative = 1.57113e-16
smoothSolver:  Solving for omega, Initial residual = 5.36903e-05, Final residual = 2.79873e-06, No Iterations 1
smoothSolver:  Solving for k, Initial residual = 0.000871255, Final residual = 5.15816e-05, No Iterations 1
ExecutionTime = 0.98 s  ClockTime = 1 s

forceCoeffs forceCoeffs1 write:
    Coefficient	Total	Pressure	Viscous	Internal
    Cd:	0	0	0	0
    Cd(f):	0	0	0	0
    Cd(r):	0	0	0	0
    Cl:	0	0	0	0
    Cl(f):	0	0	0	0
    Cl(r):	0	0	0	0
    CmPitch:	0	0	0	0
    CmRoll:	0	0	0	0
    CmYaw:	0	0	0	0
    Cs:	0	0	0	0
    Cs(f):	0	0	0	0
    Cs(r):	0	0	0	0

    writing force and moment coefficient files.

Time = 19

smoothSolver:  Solving for Ux, Initial residual = 0.5873, Final residual = 0.273075, No Iterations 1000
smoothSolver:  Solving for Uy, Initial residual = 0.561229, Final residual = 0.015732, No Iterations 2
smoothSolver:  Solving for Uz, Initial residual = 0.555061, Final residual = 0.0195851, No Iterations 2
GAMG:  Solving for p, Initial residual = 0.10727, Final residual = 0.000949776, No Iterations 2
time step continuity errors : sum local = 1.5677e-15, global = 2.6426e-17, cumulative = 1.83539e-16
smoothSolver:  Solving for omega, Initial residual = 3.32761e-05, Final residual = 1.62037e-06, No Iterations 1
smoothSolver:  Solving for k, Initial residual = 0.000544192, Final residual = 3.01024e-05, No Iterations 1
ExecutionTime = 1.01 s  ClockTime = 1 s

forceCoeffs forceCoeffs1 write:
    Coefficient	Total	Pressure	Viscous	Internal
    Cd:	0	0	0	0
    Cd(f):	0	0	0	0
    Cd(r):	0	0	0	0
    Cl:	0	0	0	0
    Cl(f):	0	0	0	0
    Cl(r):	0	0	0	0
    CmPitch:	0	0	0	0
    CmRoll:	0	0	0	0
    CmYaw:	0	0	0	0
    Cs:	0	0	0	0
    Cs(f):	0	0	0	0
    Cs(r):	0	0	0	0

    writing force and moment coefficient files.

Time = 20

smoothSolver:  Solving for Ux, Initial residual = 0.571509, Final residual = 0.282503, No Iterations 1000
smoothSolver:  Solving for Uy, Initial residual = 0.550409, Final residual = 0.015407, No Iterations 2
smoothSolver:  Solving for Uz, Initial residual = 0.559554, Final residual = 0.0174183, No Iterations 2
GAMG:  Solving for p, Initial residual = 0.107311, Final residual = 0.000709722, No Iterations 2
time step continuity errors : sum local = 1.68976e-15, global = 9.29207e-17, cumulative = 2.76459e-16
smoothSolver:  Solving for omega, Initial residual = 2.02047e-05, Final residual = 9.25934e-07, No Iterations 1
smoothSolver:  Solving for k, Initial residual = 0.00033404, Final residual = 1.73889e-05, No Iterations 1
ExecutionTime = 1.04 s  ClockTime = 1 s

forceCoeffs forceCoeffs1 write:
    Coefficient	Total	Pressure	Viscous	Internal
    Cd:	0	0	0	0
    Cd(f):	0	0	0	0
    Cd(r):	0	0	0	0
    Cl:	0	0	0	0
    Cl(f):	0	0	0	0
    Cl(r):	0	0	0	0
    CmPitch:	0	0	0	0
    CmRoll:	0	0	0	0
    CmYaw:	0	0	0	0
    Cs:	0	0	0	0
    Cs(f):	0	0	0	0
    Cs(r):	0	0	0	0

    writing force and moment coefficient files.

Time = 21

smoothSolver:  Solving for Ux, Initial residual = 0.579566, Final residual = 0.283416, No Iterations 1000
smoothSolver:  Solving for Uy, Initial residual = 0.546945, Final residual = 0.013925, No Iterations 2
smoothSolver:  Solving for Uz, Initial residual = 0.553115, Final residual = 0.016094, No Iterations 2
GAMG:  Solving for p, Initial residual = 0.115346, Final residual = 0.000801264, No Iterations 2
time step continuity errors : sum local = 1.57976e-15, global = -4.76992e-17, cumulative = 2.2876e-16
smoothSolver:  Solving for omega, Initial residual = 1.20215e-05, Final residual = 5.21828e-07, No Iterations 1
smoothSolver:  Solving for k, Initial residual = 0.00020129, Final residual = 9.92917e-06, No Iterations 1
ExecutionTime = 1.08 s  ClockTime = 1 s

forceCoeffs forceCoeffs1 write:
    Coefficient	Total	Pressure	Viscous	Internal
    Cd:	0	0	0	0
    Cd(f):	0	0	0	0
    Cd(r):	0	0	0	0
    Cl:	0	0	0	0
    Cl(f):	0	0	0	0
    Cl(r):	0	0	0	0
    CmPitch:	0	0	0	0
    CmRoll:	0	0	0	0
    CmYaw:	0	0	0	0
    Cs:	0	0	0	0
    Cs(f):	0	0	0	0
    Cs(r):	0	0	0	0

    writing force and moment coefficient files.

Time = 22

smoothSolver:  Solving for Ux, Initial residual = 0.572479, Final residual = 0.286732, No Iterations 1000
smoothSolver:  Solving for Uy, Initial residual = 0.57263, Final residual = 0.016278, No Iterations 2
smoothSolver:  Solving for Uz, Initial residual = 0.549476, Final residual = 0.0148086, No Iterations 2
GAMG:  Solving for p, Initial residual = 0.100091, Final residual = 0.000731851, No Iterations 2
time step continuity errors : sum local = 1.53087e-15, global = -3.30224e-17, cumulative = 1.95738e-16
smoothSolver:  Solving for omega, Initial residual = 7.01484e-06, Final residual = 2.90018e-07, No Iterations 1
smoothSolver:  Solving for k, Initial residual = 0.000119073, Final residual = 5.60068e-06, No Iterations 1
ExecutionTime = 1.11 s  ClockTime = 1 s

forceCoeffs forceCoeffs1 write:
    Coefficient	Total	Pressure	Viscous	Internal
    Cd:	0	0	0	0
    Cd(f):	0	0	0	0
    Cd(r):	0	0	0	0
    Cl:	0	0	0	0
    Cl(f):	0	0	0	0
    Cl(r):	0	0	0	0
    CmPitch:	0	0	0	0
    CmRoll:	0	0	0	0
    CmYaw:	0	0	0	0
    Cs:	0	0	0	0
    Cs(f):	0	0	0	0
    Cs(r):	0	0	0	0

    writing force and moment coefficient files.

Time = 23

smoothSolver:  Solving for Ux, Initial residual = 0.58838, Final residual = 0.273048, No Iterations 1000
smoothSolver:  Solving for Uy, Initial residual = 0.55549, Final residual = 0.0125517, No Iterations 2
smoothSolver:  Solving for Uz, Initial residual = 0.523414, Final residual = 0.0148201, No Iterations 2
GAMG:  Solving for p, Initial residual = 0.0981131, Final residual = 0.00085019, No Iterations 2
time step continuity errors : sum local = 1.63174e-15, global = 4.83446e-18, cumulative = 2.00572e-16
smoothSolver:  Solving for omega, Initial residual = 4.01915e-06, Final residual = 1.59013e-07, No Iterations 1
smoothSolver:  Solving for k, Initial residual = 6.91899e-05, Final residual = 3.1204e-06, No Iterations 1
ExecutionTime = 1.14 s  ClockTime = 1 s

forceCoeffs forceCoeffs1 write:
    Coefficient	Total	Pressure	Viscous	Internal
    Cd:	0	0	0	0
    Cd(f):	0	0	0	0
    Cd(r):	0	0	0	0
    Cl:	0	0	0	0
    Cl(f):	0	0	0	0
    Cl(r):	0	0	0	0
    CmPitch:	0	0	0	0
    CmRoll:	0	0	0	0
    CmYaw:	0	0	0	0
    Cs:	0	0	0	0
    Cs(f):	0	0	0	0
    Cs(r):	0	0	0	0

    writing force and moment coefficient files.

Time = 24

smoothSolver:  Solving for Ux, Initial residual = 0.589878, Final residual = 0.301724, No Iterations 1000
smoothSolver:  Solving for Uy, Initial residual = 0.554892, Final residual = 0.0143837, No Iterations 2
smoothSolver:  Solving for Uz, Initial residual = 0.558075, Final residual = 0.0133128, No Iterations 2
GAMG:  Solving for p, Initial residual = 0.0975164, Final residual = 0.000242897, No Iterations 3
time step continuity errors : sum local = 1.59091e-15, global = -4.79891e-17, cumulative = 1.52583e-16
smoothSolver:  Solving for omega, Initial residual = 2.26383e-06, Final residual = 8.606e-08, No Iterations 1
smoothSolver:  Solving for k, Initial residual = 3.95318e-05, Final residual = 1.71764e-06, No Iterations 1
ExecutionTime = 1.19 s  ClockTime = 1 s

forceCoeffs forceCoeffs1 write:
    Coefficient	Total	Pressure	Viscous	Internal
    Cd:	0	0	0	0
    Cd(f):	0	0	0	0
    Cd(r):	0	0	0	0
    Cl:	0	0	0	0
    Cl(f):	0	0	0	0
    Cl(r):	0	0	0	0
    CmPitch:	0	0	0	0
    CmRoll:	0	0	0	0
    CmYaw:	0	0	0	0
    Cs:	0	0	0	0
    Cs(f):	0	0	0	0
    Cs(r):	0	0	0	0

    writing force and moment coefficient files.

Time = 25

smoothSolver:  Solving for Ux, Initial residual = 0.588332, Final residual = 0.27496, No Iterations 1000
smoothSolver:  Solving for Uy, Initial residual = 0.549352, Final residual = 0.0171648, No Iterations 2
smoothSolver:  Solving for Uz, Initial residual = 0.535974, Final residual = 0.0170321, No Iterations 2
GAMG:  Solving for p, Initial residual = 0.0977937, Final residual = 0.000327691, No Iterations 3
time step continuity errors : sum local = 1.5942e-15, global = -5.30951e-17, cumulative = 9.9488e-17
smoothSolver:  Solving for omega, Initial residual = 1.25505e-06, Final residual = 4.60055e-08, No Iterations 1
smoothSolver:  Solving for k, Initial residual = 2.22336e-05, Final residual = 9.34555e-07, No Iterations 1
ExecutionTime = 1.22 s  ClockTime = 1 s

forceCoeffs forceCoeffs1 write:
    Coefficient	Total	Pressure	Viscous	Internal
    Cd:	0	0	0	0
    Cd(f):	0	0	0	0
    Cd(r):	0	0	0	0
    Cl:	0	0	0	0
    Cl(f):	0	0	0	0
    Cl(r):	0	0	0	0
    CmPitch:	0	0	0	0
    CmRoll:	0	0	0	0
    CmYaw:	0	0	0	0
    Cs:	0	0	0	0
    Cs(f):	0	0	0	0
    Cs(r):	0	0	0	0

    writing force and moment coefficient files.

Time = 26

smoothSolver:  Solving for Ux, Initial residual = 0.583622, Final residual = 0.28605, No Iterations 1000
smoothSolver:  Solving for Uy, Initial residual = 0.563905, Final residual = 0.0174923, No Iterations 2
smoothSolver:  Solving for Uz, Initial residual = 0.530556, Final residual = 0.0167993, No Iterations 2
GAMG:  Solving for p, Initial residual = 0.097773, Final residual = 0.000949726, No Iterations 2
time step continuity errors : sum local = 1.52897e-15, global = -5.05567e-17, cumulative = 4.89312e-17
smoothSolver:  Solving for omega, Initial residual = 6.85569e-07, Final residual = 2.43069e-08, No Iterations 1
smoothSolver:  Solving for k, Initial residual = 1.23231e-05, Final residual = 5.02881e-07, No Iterations 1
ExecutionTime = 1.24 s  ClockTime = 1 s

forceCoeffs forceCoeffs1 write:
    Coefficient	Total	Pressure	Viscous	Internal
    Cd:	0	0	0	0
    Cd(f):	0	0	0	0
    Cd(r):	0	0	0	0
    Cl:	0	0	0	0
    Cl(f):	0	0	0	0
    Cl(r):	0	0	0	0
    CmPitch:	0	0	0	0
    CmRoll:	0	0	0	0
    CmYaw:	0	0	0	0
    Cs:	0	0	0	0
    Cs(f):	0	0	0	0
    Cs(r):	0	0	0	0

    writing force and moment coefficient files.

Time = 27

smoothSolver:  Solving for Ux, Initial residual = 0.558932, Final residual = 0.282937, No Iterations 1000
smoothSolver:  Solving for Uy, Initial residual = 0.541046, Final residual = 0.0163099, No Iterations 2
smoothSolver:  Solving for Uz, Initial residual = 0.568777, Final residual = 0.0166889, No Iterations 2
GAMG:  Solving for p, Initial residual = 0.0956185, Final residual = 0.000733821, No Iterations 2
time step continuity errors : sum local = 1.61091e-15, global = -5.69937e-18, cumulative = 4.32319e-17
smoothSolver:  Solving for omega, Initial residual = 3.69341e-07, Final residual = 1.27e-08, No Iterations 1
smoothSolver:  Solving for k, Initial residual = 6.73797e-06, Final residual = 2.67763e-07, No Iterations 1
ExecutionTime = 1.27 s  ClockTime = 1 s

forceCoeffs forceCoeffs1 write:
    Coefficient	Total	Pressure	Viscous	Internal
    Cd:	0	0	0	0
    Cd(f):	0	0	0	0
    Cd(r):	0	0	0	0
    Cl:	0	0	0	0
    Cl(f):	0	0	0	0
    Cl(r):	0	0	0	0
    CmPitch:	0	0	0	0
    CmRoll:	0	0	0	0
    CmYaw:	0	0	0	0
    Cs:	0	0	0	0
    Cs(f):	0	0	0	0
    Cs(r):	0	0	0	0

    writing force and moment coefficient files.

Time = 28

smoothSolver:  Solving for Ux, Initial residual = 0.578741, Final residual = 0.284929, No Iterations 1000
smoothSolver:  Solving for Uy, Initial residual = 0.524037, Final residual = 0.0113786, No Iterations 2
smoothSolver:  Solving for Uz, Initial residual = 0.524185, Final residual = 0.0207642, No Iterations 2
GAMG:  Solving for p, Initial residual = 0.0978443, Final residual = 0.000345386, No Iterations 3
time step continuity errors : sum local = 1.59073e-15, global = 7.90391e-18, cumulative = 5.11358e-17
smoothSolver:  Solving for omega, Initial residual = 1.964e-07, Final residual = 6.56517e-09, No Iterations 1
smoothSolver:  Solving for k, Initial residual = 3.6378e-06, Final residual = 1.41152e-07, No Iterations 1
ExecutionTime = 1.32 s  ClockTime = 1 s

forceCoeffs forceCoeffs1 write:
    Coefficient	Total	Pressure	Viscous	Internal
    Cd:	0	0	0	0
    Cd(f):	0	0	0	0
    Cd(r):	0	0	0	0
    Cl:	0	0	0	0
    Cl(f):	0	0	0	0
    Cl(r):	0	0	0	0
    CmPitch:	0	0	0	0
    CmRoll:	0	0	0	0
    CmYaw:	0	0	0	0
    Cs:	0	0	0	0
    Cs(f):	0	0	0	0
    Cs(r):	0	0	0	0

    writing force and moment coefficient files.

Time = 29

smoothSolver:  Solving for Ux, Initial residual = 0.618251, Final residual = 0.273884, No Iterations 1000
smoothSolver:  Solving for Uy, Initial residual = 0.5205, Final residual = 0.0131962, No Iterations 2
smoothSolver:  Solving for Uz, Initial residual = 0.557129, Final residual = 0.0153785, No Iterations 2
GAMG:  Solving for p, Initial residual = 0.10761, Final residual = 0.000612623, No Iterations 2
time step continuity errors : sum local = 1.62476e-15, global = -5.05124e-17, cumulative = 6.23341e-19
smoothSolver:  Solving for omega, Initial residual = 1.03156e-07, Final residual = 3.3592e-09, No Iterations 1
smoothSolver:  Solving for k, Initial residual = 1.94088e-06, Final residual = 7.37004e-08, No Iterations 1
ExecutionTime = 1.35 s  ClockTime = 1 s

forceCoeffs forceCoeffs1 write:
    Coefficient	Total	Pressure	Viscous	Internal
    Cd:	0	0	0	0
    Cd(f):	0	0	0	0
    Cd(r):	0	0	0	0
    Cl:	0	0	0	0
    Cl(f):	0	0	0	0
    Cl(r):	0	0	0	0
    CmPitch:	0	0	0	0
    CmRoll:	0	0	0	0
    CmYaw:	0	0	0	0
    Cs:	0	0	0	0
    Cs(f):	0	0	0	0
    Cs(r):	0	0	0	0

    writing force and moment coefficient files.

Time = 30

smoothSolver:  Solving for Ux, Initial residual = 0.585192, Final residual = 0.297952, No Iterations 1000
smoothSolver:  Solving for Uy, Initial residual = 0.538046, Final residual = 0.0166604, No Iterations 2
smoothSolver:  Solving for Uz, Initial residual = 0.552528, Final residual = 0.0193506, No Iterations 2
GAMG:  Solving for p, Initial residual = 0.0937196, Final residual = 0.00085588, No Iterations 2
time step continuity errors : sum local = 1.57096e-15, global = -3.94038e-17, cumulative = -3.87804e-17
smoothSolver:  Solving for omega, Initial residual = 5.35495e-08, Final residual = 1.70189e-09, No Iterations 1
smoothSolver:  Solving for k, Initial residual = 1.02404e-06, Final residual = 3.81311e-08, No Iterations 1
ExecutionTime = 1.38 s  ClockTime = 1 s

forceCoeffs forceCoeffs1 write:
    Coefficient	Total	Pressure	Viscous	Internal
    Cd:	0	0	0	0
    Cd(f):	0	0	0	0
    Cd(r):	0	0	0	0
    Cl:	0	0	0	0
    Cl(f):	0	0	0	0
    Cl(r):	0	0	0	0
    CmPitch:	0	0	0	0
    CmRoll:	0	0	0	0
    CmYaw:	0	0	0	0
    Cs:	0	0	0	0
    Cs(f):	0	0	0	0
    Cs(r):	0	0	0	0

    writing force and moment coefficient files.

Time = 31

smoothSolver:  Solving for Ux, Initial residual = 0.579823, Final residual = 0.266193, No Iterations 1000
smoothSolver:  Solving for Uy, Initial residual = 0.543415, Final residual = 0.0140678, No Iterations 2
smoothSolver:  Solving for Uz, Initial residual = 0.527718, Final residual = 0.0194378, No Iterations 2
GAMG:  Solving for p, Initial residual = 0.0959362, Final residual = 0.000628322, No Iterations 2
time step continuity errors : sum local = 1.55465e-15, global = 1.0552e-17, cumulative = -2.82285e-17
smoothSolver:  Solving for omega, Initial residual = 2.74883e-08, Final residual = 8.54033e-10, No Iterations 1
smoothSolver:  Solving for k, Initial residual = 5.34622e-07, Final residual = 1.95554e-08, No Iterations 1
ExecutionTime = 1.42 s  ClockTime = 1 s

forceCoeffs forceCoeffs1 write:
    Coefficient	Total	Pressure	Viscous	Internal
    Cd:	0	0	0	0
    Cd(f):	0	0	0	0
    Cd(r):	0	0	0	0
    Cl:	0	0	0	0
    Cl(f):	0	0	0	0
    Cl(r):	0	0	0	0
    CmPitch:	0	0	0	0
    CmRoll:	0	0	0	0
    CmYaw:	0	0	0	0
    Cs:	0	0	0	0
    Cs(f):	0	0	0	0
    Cs(r):	0	0	0	0

    writing force and moment coefficient files.

Time = 32

smoothSolver:  Solving for Ux, Initial residual = 0.593825, Final residual = 0.269304, No Iterations 1000
smoothSolver:  Solving for Uy, Initial residual = 0.535543, Final residual = 0.017035, No Iterations 2
smoothSolver:  Solving for Uz, Initial residual = 0.533645, Final residual = 0.016111, No Iterations 2
GAMG:  Solving for p, Initial residual = 0.0852401, Final residual = 0.000774551, No Iterations 2
time step continuity errors : sum local = 1.56416e-15, global = 4.87586e-17, cumulative = 2.05301e-17
smoothSolver:  Solving for omega, Initial residual = 1.39598e-08, Final residual = 4.24608e-10, No Iterations 1
smoothSolver:  Solving for k, Initial residual = 2.76325e-07, Final residual = 9.94409e-09, No Iterations 1
ExecutionTime = 1.45 s  ClockTime = 1 s

forceCoeffs forceCoeffs1 write:
    Coefficient	Total	Pressure	Viscous	Internal
    Cd:	0	0	0	0
    Cd(f):	0	0	0	0
    Cd(r):	0	0	0	0
    Cl:	0	0	0	0
    Cl(f):	0	0	0	0
    Cl(r):	0	0	0	0
    CmPitch:	0	0	0	0
    CmRoll:	0	0	0	0
    CmYaw:	0	0	0	0
    Cs:	0	0	0	0
    Cs(f):	0	0	0	0
    Cs(r):	0	0	0	0

    writing force and moment coefficient files.

Time = 33

smoothSolver:  Solving for Ux, Initial residual = 0.596704, Final residual = 0.284862, No Iterations 1000
smoothSolver:  Solving for Uy, Initial residual = 0.534464, Final residual = 0.0148325, No Iterations 2
smoothSolver:  Solving for Uz, Initial residual = 0.553093, Final residual = 0.0151794, No Iterations 2
GAMG:  Solving for p, Initial residual = 0.0932123, Final residual = 0.000759298, No Iterations 2
time step continuity errors : sum local = 1.5291e-15, global = 1.08834e-16, cumulative = 1.29364e-16
smoothSolver:  Solving for omega, Initial residual = 7.0168e-09, Final residual = 7.0168e-09, No Iterations 0
smoothSolver:  Solving for k, Initial residual = 1.42014e-07, Final residual = 5.03421e-09, No Iterations 1
ExecutionTime = 1.48 s  ClockTime = 1 s

forceCoeffs forceCoeffs1 write:
    Coefficient	Total	Pressure	Viscous	Internal
    Cd:	0	0	0	0
    Cd(f):	0	0	0	0
    Cd(r):	0	0	0	0
    Cl:	0	0	0	0
    Cl(f):	0	0	0	0
    Cl(r):	0	0	0	0
    CmPitch:	0	0	0	0
    CmRoll:	0	0	0	0
    CmYaw:	0	0	0	0
    Cs:	0	0	0	0
    Cs(f):	0	0	0	0
    Cs(r):	0	0	0	0

    writing force and moment coefficient files.

Time = 34

smoothSolver:  Solving for Ux, Initial residual = 0.590676, Final residual = 0.283639, No Iterations 1000
smoothSolver:  Solving for Uy, Initial residual = 0.56166, Final residual = 0.017521, No Iterations 2
smoothSolver:  Solving for Uz, Initial residual = 0.542647, Final residual = 0.0175299, No Iterations 2
GAMG:  Solving for p, Initial residual = 0.0982573, Final residual = 0.000577143, No Iterations 2
time step continuity errors : sum local = 1.55432e-15, global = -8.38899e-18, cumulative = 1.20975e-16
smoothSolver:  Solving for omega, Initial residual = 7.02697e-09, Final residual = 7.02697e-09, No Iterations 0
smoothSolver:  Solving for k, Initial residual = 7.2309e-08, Final residual = 2.52777e-09, No Iterations 1
ExecutionTime = 1.51 s  ClockTime = 1 s

forceCoeffs forceCoeffs1 write:
    Coefficient	Total	Pressure	Viscous	Internal
    Cd:	0	0	0	0
    Cd(f):	0	0	0	0
    Cd(r):	0	0	0	0
    Cl:	0	0	0	0
    Cl(f):	0	0	0	0
    Cl(r):	0	0	0	0
    CmPitch:	0	0	0	0
    CmRoll:	0	0	0	0
    CmYaw:	0	0	0	0
    Cs:	0	0	0	0
    Cs(f):	0	0	0	0
    Cs(r):	0	0	0	0

    writing force and moment coefficient files.

Time = 35

smoothSolver:  Solving for Ux, Initial residual = 0.577404, Final residual = 0.299003, No Iterations 1000
smoothSolver:  Solving for Uy, Initial residual = 0.52815, Final residual = 0.0133992, No Iterations 2
smoothSolver:  Solving for Uz, Initial residual = 0.528741, Final residual = 0.0157686, No Iterations 2
GAMG:  Solving for p, Initial residual = 0.0820587, Final residual = 0.000590388, No Iterations 2
time step continuity errors : sum local = 1.51739e-15, global = 2.50507e-17, cumulative = 1.46026e-16
smoothSolver:  Solving for omega, Initial residual = 7.03201e-09, Final residual = 7.03201e-09, No Iterations 0
smoothSolver:  Solving for k, Initial residual = 3.64889e-08, Final residual = 1.25925e-09, No Iterations 1
ExecutionTime = 1.54 s  ClockTime = 1 s

forceCoeffs forceCoeffs1 write:
    Coefficient	Total	Pressure	Viscous	Internal
    Cd:	0	0	0	0
    Cd(f):	0	0	0	0
    Cd(r):	0	0	0	0
    Cl:	0	0	0	0
    Cl(f):	0	0	0	0
    Cl(r):	0	0	0	0
    CmPitch:	0	0	0	0
    CmRoll:	0	0	0	0
    CmYaw:	0	0	0	0
    Cs:	0	0	0	0
    Cs(f):	0	0	0	0
    Cs(r):	0	0	0	0

    writing force and moment coefficient files.

Time = 36

smoothSolver:  Solving for Ux, Initial residual = 0.578776, Final residual = 0.280244, No Iterations 1000
smoothSolver:  Solving for Uy, Initial residual = 0.524566, Final residual = 0.0138982, No Iterations 2
smoothSolver:  Solving for Uz, Initial residual = 0.531839, Final residual = 0.0142585, No Iterations 2
GAMG:  Solving for p, Initial residual = 0.0879694, Final residual = 0.000333936, No Iterations 3
time step continuity errors : sum local = 1.54161e-15, global = 5.44176e-17, cumulative = 2.00443e-16
smoothSolver:  Solving for omega, Initial residual = 7.03449e-09, Final residual = 7.03449e-09, No Iterations 0
smoothSolver:  Solving for k, Initial residual = 1.82552e-08, Final residual = 6.22528e-10, No Iterations 1
ExecutionTime = 1.58 s  ClockTime = 1 s

forceCoeffs forceCoeffs1 write:
    Coefficient	Total	Pressure	Viscous	Internal
    Cd:	0	0	0	0
    Cd(f):	0	0	0	0
    Cd(r):	0	0	0	0
    Cl:	0	0	0	0
    Cl(f):	0	0	0	0
    Cl(r):	0	0	0	0
    CmPitch:	0	0	0	0
    CmRoll:	0	0	0	0
    CmYaw:	0	0	0	0
    Cs:	0	0	0	0
    Cs(f):	0	0	0	0
    Cs(r):	0	0	0	0

    writing force and moment coefficient files.

Time = 37

smoothSolver:  Solving for Ux, Initial residual = 0.569078, Final residual = 0.272138, No Iterations 1000
smoothSolver:  Solving for Uy, Initial residual = 0.512797, Final residual = 0.0135034, No Iterations 2
smoothSolver:  Solving for Uz, Initial residual = 0.517744, Final residual = 0.0184704, No Iterations 2
GAMG:  Solving for p, Initial residual = 0.0866578, Final residual = 0.0005549, No Iterations 2
time step continuity errors : sum local = 1.64145e-15, global = -1.19195e-17, cumulative = 1.88524e-16
smoothSolver:  Solving for omega, Initial residual = 7.03569e-09, Final residual = 7.03569e-09, No Iterations 0
smoothSolver:  Solving for k, Initial residual = 9.05745e-09, Final residual = 9.05745e-09, No Iterations 0
ExecutionTime = 1.61 s  ClockTime = 1 s

forceCoeffs forceCoeffs1 write:
    Coefficient	Total	Pressure	Viscous	Internal
    Cd:	0	0	0	0
    Cd(f):	0	0	0	0
    Cd(r):	0	0	0	0
    Cl:	0	0	0	0
    Cl(f):	0	0	0	0
    Cl(r):	0	0	0	0
    CmPitch:	0	0	0	0
    CmRoll:	0	0	0	0
    CmYaw:	0	0	0	0
    Cs:	0	0	0	0
    Cs(f):	0	0	0	0
    Cs(r):	0	0	0	0

    writing force and moment coefficient files.

Time = 38

smoothSolver:  Solving for Ux, Initial residual = 0.535969, Final residual = 0.272096, No Iterations 1000
smoothSolver:  Solving for Uy, Initial residual = 0.533775, Final residual = 0.0141651, No Iterations 2
smoothSolver:  Solving for Uz, Initial residual = 0.501377, Final residual = 0.0474278, No Iterations 1
GAMG:  Solving for p, Initial residual = 0.080186, Final residual = 0.000493761, No Iterations 2
time step continuity errors : sum local = 1.61898e-15, global = -6.08192e-17, cumulative = 1.27704e-16
smoothSolver:  Solving for omega, Initial residual = 7.03562e-09, Final residual = 7.03562e-09, No Iterations 0
smoothSolver:  Solving for k, Initial residual = 9.05745e-09, Final residual = 9.05745e-09, No Iterations 0
ExecutionTime = 1.64 s  ClockTime = 1 s

forceCoeffs forceCoeffs1 write:
    Coefficient	Total	Pressure	Viscous	Internal
    Cd:	0	0	0	0
    Cd(f):	0	0	0	0
    Cd(r):	0	0	0	0
    Cl:	0	0	0	0
    Cl(f):	0	0	0	0
    Cl(r):	0	0	0	0
    CmPitch:	0	0	0	0
    CmRoll:	0	0	0	0
    CmYaw:	0	0	0	0
    Cs:	0	0	0	0
    Cs(f):	0	0	0	0
    Cs(r):	0	0	0	0

    writing force and moment coefficient files.

Time = 39

smoothSolver:  Solving for Ux, Initial residual = 0.521878, Final residual = 0.27055, No Iterations 1000
smoothSolver:  Solving for Uy, Initial residual = 0.520939, Final residual = 0.0124816, No Iterations 2
smoothSolver:  Solving for Uz, Initial residual = 0.518115, Final residual = 0.0131744, No Iterations 2
GAMG:  Solving for p, Initial residual = 0.0759839, Final residual = 0.000540343, No Iterations 2
time step continuity errors : sum local = 1.66885e-15, global = -6.59149e-17, cumulative = 6.17895e-17
smoothSolver:  Solving for omega, Initial residual = 7.03562e-09, Final residual = 7.03562e-09, No Iterations 0
smoothSolver:  Solving for k, Initial residual = 9.05745e-09, Final residual = 9.05745e-09, No Iterations 0
ExecutionTime = 1.68 s  ClockTime = 2 s

forceCoeffs forceCoeffs1 write:
    Coefficient	Total	Pressure	Viscous	Internal
    Cd:	0	0	0	0
    Cd(f):	0	0	0	0
    Cd(r):	0	0	0	0
    Cl:	0	0	0	0
    Cl(f):	0	0	0	0
    Cl(r):	0	0	0	0
    CmPitch:	0	0	0	0
    CmRoll:	0	0	0	0
    CmYaw:	0	0	0	0
    Cs:	0	0	0	0
    Cs(f):	0	0	0	0
    Cs(r):	0	0	0	0

    writing force and moment coefficient files.

Time = 40

smoothSolver:  Solving for Ux, Initial residual = 0.53309, Final residual = 0.262462, No Iterations 1000
smoothSolver:  Solving for Uy, Initial residual = 0.522103, Final residual = 0.0135623, No Iterations 2
smoothSolver:  Solving for Uz, Initial residual = 0.492415, Final residual = 0.0123302, No Iterations 2
GAMG:  Solving for p, Initial residual = 0.0907718, Final residual = 0.000880659, No Iterations 2
time step continuity errors : sum local = 1.61001e-15, global = 3.92808e-17, cumulative = 1.0107e-16
smoothSolver:  Solving for omega, Initial residual = 7.03562e-09, Final residual = 7.03562e-09, No Iterations 0
smoothSolver:  Solving for k, Initial residual = 9.05745e-09, Final residual = 9.05745e-09, No Iterations 0
ExecutionTime = 1.72 s  ClockTime = 2 s

forceCoeffs forceCoeffs1 write:
    Coefficient	Total	Pressure	Viscous	Internal
    Cd:	0	0	0	0
    Cd(f):	0	0	0	0
    Cd(r):	0	0	0	0
    Cl:	0	0	0	0
    Cl(f):	0	0	0	0
    Cl(r):	0	0	0	0
    CmPitch:	0	0	0	0
    CmRoll:	0	0	0	0
    CmYaw:	0	0	0	0
    Cs:	0	0	0	0
    Cs(f):	0	0	0	0
    Cs(r):	0	0	0	0

    writing force and moment coefficient files.

Time = 41

smoothSolver:  Solving for Ux, Initial residual = 0.539378, Final residual = 0.263369, No Iterations 1000
smoothSolver:  Solving for Uy, Initial residual = 0.520986, Final residual = 0.0136403, No Iterations 2
smoothSolver:  Solving for Uz, Initial residual = 0.504796, Final residual = 0.0134786, No Iterations 2
GAMG:  Solving for p, Initial residual = 0.0838108, Final residual = 0.00030122, No Iterations 3
time step continuity errors : sum local = 1.63469e-15, global = -3.29535e-17, cumulative = 6.81168e-17
smoothSolver:  Solving for omega, Initial residual = 7.03562e-09, Final residual = 7.03562e-09, No Iterations 0
smoothSolver:  Solving for k, Initial residual = 9.05745e-09, Final residual = 9.05745e-09, No Iterations 0
ExecutionTime = 1.75 s  ClockTime = 2 s

forceCoeffs forceCoeffs1 write:
    Coefficient	Total	Pressure	Viscous	Internal
    Cd:	0	0	0	0
    Cd(f):	0	0	0	0
    Cd(r):	0	0	0	0
    Cl:	0	0	0	0
    Cl(f):	0	0	0	0
    Cl(r):	0	0	0	0
    CmPitch:	0	0	0	0
    CmRoll:	0	0	0	0
    CmYaw:	0	0	0	0
    Cs:	0	0	0	0
    Cs(f):	0	0	0	0
    Cs(r):	0	0	0	0

    writing force and moment coefficient files.

Time = 42

smoothSolver:  Solving for Ux, Initial residual = 0.531009, Final residual = 0.255443, No Iterations 1000
smoothSolver:  Solving for Uy, Initial residual = 0.505829, Final residual = 0.0145021, No Iterations 2
smoothSolver:  Solving for Uz, Initial residual = 0.510304, Final residual = 0.0176213, No Iterations 2
GAMG:  Solving for p, Initial residual = 0.0760984, Final residual = 0.00028021, No Iterations 3
time step continuity errors : sum local = 1.60445e-15, global = -6.59964e-17, cumulative = 2.12041e-18
smoothSolver:  Solving for omega, Initial residual = 7.03562e-09, Final residual = 7.03562e-09, No Iterations 0
smoothSolver:  Solving for k, Initial residual = 9.05745e-09, Final residual = 9.05745e-09, No Iterations 0
ExecutionTime = 1.78 s  ClockTime = 2 s

forceCoeffs forceCoeffs1 write:
    Coefficient	Total	Pressure	Viscous	Internal
    Cd:	0	0	0	0
    Cd(f):	0	0	0	0
    Cd(r):	0	0	0	0
    Cl:	0	0	0	0
    Cl(f):	0	0	0	0
    Cl(r):	0	0	0	0
    CmPitch:	0	0	0	0
    CmRoll:	0	0	0	0
    CmYaw:	0	0	0	0
    Cs:	0	0	0	0
    Cs(f):	0	0	0	0
    Cs(r):	0	0	0	0

    writing force and moment coefficient files.

Time = 43

smoothSolver:  Solving for Ux, Initial residual = 0.524659, Final residual = 0.263613, No Iterations 1000
smoothSolver:  Solving for Uy, Initial residual = 0.491596, Final residual = 0.0128987, No Iterations 2
smoothSolver:  Solving for Uz, Initial residual = 0.495108, Final residual = 0.0136432, No Iterations 2
GAMG:  Solving for p, Initial residual = 0.0735947, Final residual = 0.000558727, No Iterations 2
time step continuity errors : sum local = 1.61265e-15, global = 2.3774e-17, cumulative = 2.58944e-17
smoothSolver:  Solving for omega, Initial residual = 7.03562e-09, Final residual = 7.03562e-09, No Iterations 0
smoothSolver:  Solving for k, Initial residual = 9.05745e-09, Final residual = 9.05745e-09, No Iterations 0
ExecutionTime = 1.82 s  ClockTime = 2 s

forceCoeffs forceCoeffs1 write:
    Coefficient	Total	Pressure	Viscous	Internal
    Cd:	0	0	0	0
    Cd(f):	0	0	0	0
    Cd(r):	0	0	0	0
    Cl:	0	0	0	0
    Cl(f):	0	0	0	0
    Cl(r):	0	0	0	0
    CmPitch:	0	0	0	0
    CmRoll:	0	0	0	0
    CmYaw:	0	0	0	0
    Cs:	0	0	0	0
    Cs(f):	0	0	0	0
    Cs(r):	0	0	0	0

    writing force and moment coefficient files.

Time = 44

smoothSolver:  Solving for Ux, Initial residual = 0.522476, Final residual = 0.258491, No Iterations 1000
smoothSolver:  Solving for Uy, Initial residual = 0.467515, Final residual = 0.0128735, No Iterations 2
smoothSolver:  Solving for Uz, Initial residual = 0.459955, Final residual = 0.0128565, No Iterations 2
GAMG:  Solving for p, Initial residual = 0.0689631, Final residual = 0.000411743, No Iterations 2
time step continuity errors : sum local = 1.57286e-15, global = 3.23588e-17, cumulative = 5.82533e-17
smoothSolver:  Solving for omega, Initial residual = 7.03562e-09, Final residual = 7.03562e-09, No Iterations 0
smoothSolver:  Solving for k, Initial residual = 9.05745e-09, Final residual = 9.05745e-09, No Iterations 0
ExecutionTime = 1.85 s  ClockTime = 2 s

forceCoeffs forceCoeffs1 write:
    Coefficient	Total	Pressure	Viscous	Internal
    Cd:	0	0	0	0
    Cd(f):	0	0	0	0
    Cd(r):	0	0	0	0
    Cl:	0	0	0	0
    Cl(f):	0	0	0	0
    Cl(r):	0	0	0	0
    CmPitch:	0	0	0	0
    CmRoll:	0	0	0	0
    CmYaw:	0	0	0	0
    Cs:	0	0	0	0
    Cs(f):	0	0	0	0
    Cs(r):	0	0	0	0

    writing force and moment coefficient files.

Time = 45

smoothSolver:  Solving for Ux, Initial residual = 0.538201, Final residual = 0.263793, No Iterations 1000
smoothSolver:  Solving for Uy, Initial residual = 0.48798, Final residual = 0.0151787, No Iterations 2
smoothSolver:  Solving for Uz, Initial residual = 0.424543, Final residual = 0.0106593, No Iterations 2
GAMG:  Solving for p, Initial residual = 0.0715104, Final residual = 0.000592183, No Iterations 2
time step continuity errors : sum local = 1.56506e-15, global = -1.43536e-17, cumulative = 4.38996e-17
smoothSolver:  Solving for omega, Initial residual = 7.03562e-09, Final residual = 7.03562e-09, No Iterations 0
smoothSolver:  Solving for k, Initial residual = 9.05745e-09, Final residual = 9.05745e-09, No Iterations 0
ExecutionTime = 1.88 s  ClockTime = 2 s

forceCoeffs forceCoeffs1 write:
    Coefficient	Total	Pressure	Viscous	Internal
    Cd:	0	0	0	0
    Cd(f):	0	0	0	0
    Cd(r):	0	0	0	0
    Cl:	0	0	0	0
    Cl(f):	0	0	0	0
    Cl(r):	0	0	0	0
    CmPitch:	0	0	0	0
    CmRoll:	0	0	0	0
    CmYaw:	0	0	0	0
    Cs:	0	0	0	0
    Cs(f):	0	0	0	0
    Cs(r):	0	0	0	0

    writing force and moment coefficient files.

Time = 46

smoothSolver:  Solving for Ux, Initial residual = 0.532927, Final residual = 0.266022, No Iterations 1000
smoothSolver:  Solving for Uy, Initial residual = 0.472643, Final residual = 0.0122115, No Iterations 2
smoothSolver:  Solving for Uz, Initial residual = 0.454605, Final residual = 0.0114481, No Iterations 2
GAMG:  Solving for p, Initial residual = 0.0618749, Final residual = 0.000527123, No Iterations 2
time step continuity errors : sum local = 1.54746e-15, global = 1.75569e-17, cumulative = 6.14565e-17
smoothSolver:  Solving for omega, Initial residual = 7.03562e-09, Final residual = 7.03562e-09, No Iterations 0
smoothSolver:  Solving for k, Initial residual = 9.05745e-09, Final residual = 9.05745e-09, No Iterations 0
ExecutionTime = 1.91 s  ClockTime = 2 s

forceCoeffs forceCoeffs1 write:
    Coefficient	Total	Pressure	Viscous	Internal
    Cd:	0	0	0	0
    Cd(f):	0	0	0	0
    Cd(r):	0	0	0	0
    Cl:	0	0	0	0
    Cl(f):	0	0	0	0
    Cl(r):	0	0	0	0
    CmPitch:	0	0	0	0
    CmRoll:	0	0	0	0
    CmYaw:	0	0	0	0
    Cs:	0	0	0	0
    Cs(f):	0	0	0	0
    Cs(r):	0	0	0	0

    writing force and moment coefficient files.

Time = 47

smoothSolver:  Solving for Ux, Initial residual = 0.515285, Final residual = 0.253022, No Iterations 1000
smoothSolver:  Solving for Uy, Initial residual = 0.464445, Final residual = 0.013056, No Iterations 2
smoothSolver:  Solving for Uz, Initial residual = 0.462193, Final residual = 0.0156158, No Iterations 2
GAMG:  Solving for p, Initial residual = 0.0670968, Final residual = 0.000380715, No Iterations 2
time step continuity errors : sum local = 1.65474e-15, global = 1.55504e-17, cumulative = 7.70069e-17
smoothSolver:  Solving for omega, Initial residual = 7.03562e-09, Final residual = 7.03562e-09, No Iterations 0
smoothSolver:  Solving for k, Initial residual = 9.05745e-09, Final residual = 9.05745e-09, No Iterations 0
ExecutionTime = 1.95 s  ClockTime = 2 s

forceCoeffs forceCoeffs1 write:
    Coefficient	Total	Pressure	Viscous	Internal
    Cd:	0	0	0	0
    Cd(f):	0	0	0	0
    Cd(r):	0	0	0	0
    Cl:	0	0	0	0
    Cl(f):	0	0	0	0
    Cl(r):	0	0	0	0
    CmPitch:	0	0	0	0
    CmRoll:	0	0	0	0
    CmYaw:	0	0	0	0
    Cs:	0	0	0	0
    Cs(f):	0	0	0	0
    Cs(r):	0	0	0	0

    writing force and moment coefficient files.

Time = 48

smoothSolver:  Solving for Ux, Initial residual = 0.533802, Final residual = 0.261099, No Iterations 1000
smoothSolver:  Solving for Uy, Initial residual = 0.449403, Final residual = 0.0165904, No Iterations 2
smoothSolver:  Solving for Uz, Initial residual = 0.438768, Final residual = 0.01537, No Iterations 2
GAMG:  Solving for p, Initial residual = 0.0643446, Final residual = 0.000574217, No Iterations 2
time step continuity errors : sum local = 1.61027e-15, global = 7.56308e-17, cumulative = 1.52638e-16
smoothSolver:  Solving for omega, Initial residual = 7.03562e-09, Final residual = 7.03562e-09, No Iterations 0
smoothSolver:  Solving for k, Initial residual = 9.05745e-09, Final residual = 9.05745e-09, No Iterations 0
ExecutionTime = 1.98 s  ClockTime = 2 s

forceCoeffs forceCoeffs1 write:
    Coefficient	Total	Pressure	Viscous	Internal
    Cd:	0	0	0	0
    Cd(f):	0	0	0	0
    Cd(r):	0	0	0	0
    Cl:	0	0	0	0
    Cl(f):	0	0	0	0
    Cl(r):	0	0	0	0
    CmPitch:	0	0	0	0
    CmRoll:	0	0	0	0
    CmYaw:	0	0	0	0
    Cs:	0	0	0	0
    Cs(f):	0	0	0	0
    Cs(r):	0	0	0	0

    writing force and moment coefficient files.

Time = 49

smoothSolver:  Solving for Ux, Initial residual = 0.512397, Final residual = 0.257582, No Iterations 1000
smoothSolver:  Solving for Uy, Initial residual = 0.446404, Final residual = 0.0133523, No Iterations 2
smoothSolver:  Solving for Uz, Initial residual = 0.438658, Final residual = 0.0133775, No Iterations 2
GAMG:  Solving for p, Initial residual = 0.0653299, Final residual = 0.000447411, No Iterations 2
time step continuity errors : sum local = 1.66641e-15, global = -3.15247e-17, cumulative = 1.21113e-16
smoothSolver:  Solving for omega, Initial residual = 7.03562e-09, Final residual = 7.03562e-09, No Iterations 0
smoothSolver:  Solving for k, Initial residual = 9.05745e-09, Final residual = 9.05745e-09, No Iterations 0
ExecutionTime = 2.01 s  ClockTime = 2 s

forceCoeffs forceCoeffs1 write:
    Coefficient	Total	Pressure	Viscous	Internal
    Cd:	0	0	0	0
    Cd(f):	0	0	0	0
    Cd(r):	0	0	0	0
    Cl:	0	0	0	0
    Cl(f):	0	0	0	0
    Cl(r):	0	0	0	0
    CmPitch:	0	0	0	0
    CmRoll:	0	0	0	0
    CmYaw:	0	0	0	0
    Cs:	0	0	0	0
    Cs(f):	0	0	0	0
    Cs(r):	0	0	0	0

    writing force and moment coefficient files.

Time = 50

smoothSolver:  Solving for Ux, Initial residual = 0.530085, Final residual = 0.254428, No Iterations 1000
smoothSolver:  Solving for Uy, Initial residual = 0.45775, Final residual = 0.0133655, No Iterations 2
smoothSolver:  Solving for Uz, Initial residual = 0.433265, Final residual = 0.0120303, No Iterations 2
GAMG:  Solving for p, Initial residual = 0.0623303, Final residual = 0.000483903, No Iterations 2
time step continuity errors : sum local = 1.63127e-15, global = -4.59755e-17, cumulative = 7.51375e-17
smoothSolver:  Solving for omega, Initial residual = 7.03562e-09, Final residual = 7.03562e-09, No Iterations 0
smoothSolver:  Solving for k, Initial residual = 9.05745e-09, Final residual = 9.05745e-09, No Iterations 0
ExecutionTime = 2.05 s  ClockTime = 2 s

forceCoeffs forceCoeffs1 write:
    Coefficient	Total	Pressure	Viscous	Internal
    Cd:	0	0	0	0
    Cd(f):	0	0	0	0
    Cd(r):	0	0	0	0
    Cl:	0	0	0	0
    Cl(f):	0	0	0	0
    Cl(r):	0	0	0	0
    CmPitch:	0	0	0	0
    CmRoll:	0	0	0	0
    CmYaw:	0	0	0	0
    Cs:	0	0	0	0
    Cs(f):	0	0	0	0
    Cs(r):	0	0	0	0

    writing force and moment coefficient files.

Time = 51

smoothSolver:  Solving for Ux, Initial residual = 0.505666, Final residual = 0.265424, No Iterations 1000
smoothSolver:  Solving for Uy, Initial residual = 0.461046, Final residual = 0.0138184, No Iterations 2
smoothSolver:  Solving for Uz, Initial residual = 0.422254, Final residual = 0.0134756, No Iterations 2
GAMG:  Solving for p, Initial residual = 0.0695357, Final residual = 0.000265688, No Iterations 3
time step continuity errors : sum local = 1.51133e-15, global = 8.72319e-18, cumulative = 8.38607e-17
smoothSolver:  Solving for omega, Initial residual = 7.03562e-09, Final residual = 7.03562e-09, No Iterations 0
smoothSolver:  Solving for k, Initial residual = 9.05745e-09, Final residual = 9.05745e-09, No Iterations 0
ExecutionTime = 2.08 s  ClockTime = 2 s

forceCoeffs forceCoeffs1 write:
    Coefficient	Total	Pressure	Viscous	Internal
    Cd:	0	0	0	0
    Cd(f):	0	0	0	0
    Cd(r):	0	0	0	0
    Cl:	0	0	0	0
    Cl(f):	0	0	0	0
    Cl(r):	0	0	0	0
    CmPitch:	0	0	0	0
    CmRoll:	0	0	0	0
    CmYaw:	0	0	0	0
    Cs:	0	0	0	0
    Cs(f):	0	0	0	0
    Cs(r):	0	0	0	0

    writing force and moment coefficient files.

Time = 52

smoothSolver:  Solving for Ux, Initial residual = 0.516976, Final residual = 0.268193, No Iterations 1000
smoothSolver:  Solving for Uy, Initial residual = 0.469738, Final residual = 0.0135442, No Iterations 2
smoothSolver:  Solving for Uz, Initial residual = 0.442422, Final residual = 0.0115551, No Iterations 2
GAMG:  Solving for p, Initial residual = 0.0653568, Final residual = 0.00052011, No Iterations 2
time step continuity errors : sum local = 1.59326e-15, global = 4.62757e-17, cumulative = 1.30136e-16
smoothSolver:  Solving for omega, Initial residual = 7.03562e-09, Final residual = 7.03562e-09, No Iterations 0
smoothSolver:  Solving for k, Initial residual = 9.05745e-09, Final residual = 9.05745e-09, No Iterations 0
ExecutionTime = 2.12 s  ClockTime = 2 s

forceCoeffs forceCoeffs1 write:
    Coefficient	Total	Pressure	Viscous	Internal
    Cd:	0	0	0	0
    Cd(f):	0	0	0	0
    Cd(r):	0	0	0	0
    Cl:	0	0	0	0
    Cl(f):	0	0	0	0
    Cl(r):	0	0	0	0
    CmPitch:	0	0	0	0
    CmRoll:	0	0	0	0
    CmYaw:	0	0	0	0
    Cs:	0	0	0	0
    Cs(f):	0	0	0	0
    Cs(r):	0	0	0	0

    writing force and moment coefficient files.

Time = 53

smoothSolver:  Solving for Ux, Initial residual = 0.524263, Final residual = 0.248337, No Iterations 1000
smoothSolver:  Solving for Uy, Initial residual = 0.453964, Final residual = 0.0109608, No Iterations 2
smoothSolver:  Solving for Uz, Initial residual = 0.447553, Final residual = 0.0129677, No Iterations 2
GAMG:  Solving for p, Initial residual = 0.0664677, Final residual = 0.000460702, No Iterations 2
time step continuity errors : sum local = 1.59783e-15, global = 9.0957e-17, cumulative = 2.21093e-16
smoothSolver:  Solving for omega, Initial residual = 7.03562e-09, Final residual = 7.03562e-09, No Iterations 0
smoothSolver:  Solving for k, Initial residual = 9.05745e-09, Final residual = 9.05745e-09, No Iterations 0
ExecutionTime = 2.15 s  ClockTime = 2 s

forceCoeffs forceCoeffs1 write:
    Coefficient	Total	Pressure	Viscous	Internal
    Cd:	0	0	0	0
    Cd(f):	0	0	0	0
    Cd(r):	0	0	0	0
    Cl:	0	0	0	0
    Cl(f):	0	0	0	0
    Cl(r):	0	0	0	0
    CmPitch:	0	0	0	0
    CmRoll:	0	0	0	0
    CmYaw:	0	0	0	0
    Cs:	0	0	0	0
    Cs(f):	0	0	0	0
    Cs(r):	0	0	0	0

    writing force and moment coefficient files.

Time = 54

smoothSolver:  Solving for Ux, Initial residual = 0.513951, Final residual = 0.262303, No Iterations 1000
smoothSolver:  Solving for Uy, Initial residual = 0.454102, Final residual = 0.0186704, No Iterations 2
smoothSolver:  Solving for Uz, Initial residual = 0.426539, Final residual = 0.013467, No Iterations 2
GAMG:  Solving for p, Initial residual = 0.0592018, Final residual = 0.000410528, No Iterations 2
time step continuity errors : sum local = 1.60996e-15, global = -8.17998e-17, cumulative = 1.39294e-16
smoothSolver:  Solving for omega, Initial residual = 7.03562e-09, Final residual = 7.03562e-09, No Iterations 0
smoothSolver:  Solving for k, Initial residual = 9.05745e-09, Final residual = 9.05745e-09, No Iterations 0
ExecutionTime = 2.18 s  ClockTime = 2 s

forceCoeffs forceCoeffs1 write:
    Coefficient	Total	Pressure	Viscous	Internal
    Cd:	0	0	0	0
    Cd(f):	0	0	0	0
    Cd(r):	0	0	0	0
    Cl:	0	0	0	0
    Cl(f):	0	0	0	0
    Cl(r):	0	0	0	0
    CmPitch:	0	0	0	0
    CmRoll:	0	0	0	0
    CmYaw:	0	0	0	0
    Cs:	0	0	0	0
    Cs(f):	0	0	0	0
    Cs(r):	0	0	0	0

    writing force and moment coefficient files.

Time = 55

smoothSolver:  Solving for Ux, Initial residual = 0.534958, Final residual = 0.2601, No Iterations 1000
smoothSolver:  Solving for Uy, Initial residual = 0.445525, Final residual = 0.0119343, No Iterations 2
smoothSolver:  Solving for Uz, Initial residual = 0.409245, Final residual = 0.0112878, No Iterations 2
GAMG:  Solving for p, Initial residual = 0.0575071, Final residual = 0.00042685, No Iterations 2
time step continuity errors : sum local = 1.63228e-15, global = 1.16947e-17, cumulative = 1.50988e-16
smoothSolver:  Solving for omega, Initial residual = 7.03562e-09, Final residual = 7.03562e-09, No Iterations 0
smoothSolver:  Solving for k, Initial residual = 9.05745e-09, Final residual = 9.05745e-09, No Iterations 0
ExecutionTime = 2.22 s  ClockTime = 2 s

forceCoeffs forceCoeffs1 write:
    Coefficient	Total	Pressure	Viscous	Internal
    Cd:	0	0	0	0
    Cd(f):	0	0	0	0
    Cd(r):	0	0	0	0
    Cl:	0	0	0	0
    Cl(f):	0	0	0	0
    Cl(r):	0	0	0	0
    CmPitch:	0	0	0	0
    CmRoll:	0	0	0	0
    CmYaw:	0	0	0	0
    Cs:	0	0	0	0
    Cs(f):	0	0	0	0
    Cs(r):	0	0	0	0

    writing force and moment coefficient files.

Time = 56

smoothSolver:  Solving for Ux, Initial residual = 0.51666, Final residual = 0.247906, No Iterations 1000
smoothSolver:  Solving for Uy, Initial residual = 0.44352, Final residual = 0.0115391, No Iterations 2
smoothSolver:  Solving for Uz, Initial residual = 0.410323, Final residual = 0.0101544, No Iterations 2
GAMG:  Solving for p, Initial residual = 0.0647771, Final residual = 0.000457557, No Iterations 2
time step continuity errors : sum local = 1.59459e-15, global = -4.27469e-17, cumulative = 1.08241e-16
smoothSolver:  Solving for omega, Initial residual = 7.03562e-09, Final residual = 7.03562e-09, No Iterations 0
smoothSolver:  Solving for k, Initial residual = 9.05745e-09, Final residual = 9.05745e-09, No Iterations 0
ExecutionTime = 2.25 s  ClockTime = 2 s

forceCoeffs forceCoeffs1 write:
    Coefficient	Total	Pressure	Viscous	Internal
    Cd:	0	0	0	0
    Cd(f):	0	0	0	0
    Cd(r):	0	0	0	0
    Cl:	0	0	0	0
    Cl(f):	0	0	0	0
    Cl(r):	0	0	0	0
    CmPitch:	0	0	0	0
    CmRoll:	0	0	0	0
    CmYaw:	0	0	0	0
    Cs:	0	0	0	0
    Cs(f):	0	0	0	0
    Cs(r):	0	0	0	0

    writing force and moment coefficient files.

Time = 57

smoothSolver:  Solving for Ux, Initial residual = 0.505825, Final residual = 0.262692, No Iterations 1000
smoothSolver:  Solving for Uy, Initial residual = 0.446159, Final residual = 0.0439156, No Iterations 1
smoothSolver:  Solving for Uz, Initial residual = 0.437458, Final residual = 0.0427102, No Iterations 1
GAMG:  Solving for p, Initial residual = 0.0602689, Final residual = 0.000455054, No Iterations 2
time step continuity errors : sum local = 1.63391e-15, global = -8.74697e-18, cumulative = 9.94945e-17
smoothSolver:  Solving for omega, Initial residual = 7.03562e-09, Final residual = 7.03562e-09, No Iterations 0
smoothSolver:  Solving for k, Initial residual = 9.05745e-09, Final residual = 9.05745e-09, No Iterations 0
ExecutionTime = 2.28 s  ClockTime = 2 s

forceCoeffs forceCoeffs1 write:
    Coefficient	Total	Pressure	Viscous	Internal
    Cd:	0	0	0	0
    Cd(f):	0	0	0	0
    Cd(r):	0	0	0	0
    Cl:	0	0	0	0
    Cl(f):	0	0	0	0
    Cl(r):	0	0	0	0
    CmPitch:	0	0	0	0
    CmRoll:	0	0	0	0
    CmYaw:	0	0	0	0
    Cs:	0	0	0	0
    Cs(f):	0	0	0	0
    Cs(r):	0	0	0	0

    writing force and moment coefficient files.

Time = 58

smoothSolver:  Solving for Ux, Initial residual = 0.527163, Final residual = 0.249147, No Iterations 1000
smoothSolver:  Solving for Uy, Initial residual = 0.481773, Final residual = 0.0134385, No Iterations 2
smoothSolver:  Solving for Uz, Initial residual = 0.450241, Final residual = 0.0127989, No Iterations 2
GAMG:  Solving for p, Initial residual = 0.0637951, Final residual = 0.000216352, No Iterations 3
time step continuity errors : sum local = 1.57947e-15, global = 4.16773e-17, cumulative = 1.41172e-16
smoothSolver:  Solving for omega, Initial residual = 7.03562e-09, Final residual = 7.03562e-09, No Iterations 0
smoothSolver:  Solving for k, Initial residual = 9.05745e-09, Final residual = 9.05745e-09, No Iterations 0
ExecutionTime = 2.31 s  ClockTime = 2 s

forceCoeffs forceCoeffs1 write:
    Coefficient	Total	Pressure	Viscous	Internal
    Cd:	0	0	0	0
    Cd(f):	0	0	0	0
    Cd(r):	0	0	0	0
    Cl:	0	0	0	0
    Cl(f):	0	0	0	0
    Cl(r):	0	0	0	0
    CmPitch:	0	0	0	0
    CmRoll:	0	0	0	0
    CmYaw:	0	0	0	0
    Cs:	0	0	0	0
    Cs(f):	0	0	0	0
    Cs(r):	0	0	0	0

    writing force and moment coefficient files.

Time = 59

smoothSolver:  Solving for Ux, Initial residual = 0.535576, Final residual = 0.256019, No Iterations 1000
smoothSolver:  Solving for Uy, Initial residual = 0.46336, Final residual = 0.0452691, No Iterations 1
smoothSolver:  Solving for Uz, Initial residual = 0.426784, Final residual = 0.015077, No Iterations 2
GAMG:  Solving for p, Initial residual = 0.0602269, Final residual = 0.000303343, No Iterations 2
time step continuity errors : sum local = 1.60269e-15, global = -1.50301e-17, cumulative = 1.26142e-16
smoothSolver:  Solving for omega, Initial residual = 7.03562e-09, Final residual = 7.03562e-09, No Iterations 0
smoothSolver:  Solving for k, Initial residual = 9.05745e-09, Final residual = 9.05745e-09, No Iterations 0
ExecutionTime = 2.34 s  ClockTime = 2 s

forceCoeffs forceCoeffs1 write:
    Coefficient	Total	Pressure	Viscous	Internal
    Cd:	0	0	0	0
    Cd(f):	0	0	0	0
    Cd(r):	0	0	0	0
    Cl:	0	0	0	0
    Cl(f):	0	0	0	0
    Cl(r):	0	0	0	0
    CmPitch:	0	0	0	0
    CmRoll:	0	0	0	0
    CmYaw:	0	0	0	0
    Cs:	0	0	0	0
    Cs(f):	0	0	0	0
    Cs(r):	0	0	0	0

    writing force and moment coefficient files.

Time = 60

smoothSolver:  Solving for Ux, Initial residual = 0.518798, Final residual = 0.260935, No Iterations 1000
smoothSolver:  Solving for Uy, Initial residual = 0.467461, Final residual = 0.0181288, No Iterations 2
smoothSolver:  Solving for Uz, Initial residual = 0.411312, Final residual = 0.0115159, No Iterations 2
GAMG:  Solving for p, Initial residual = 0.0627769, Final residual = 0.000428489, No Iterations 2
time step continuity errors : sum local = 1.6585e-15, global = -2.92298e-17, cumulative = 9.69119e-17
smoothSolver:  Solving for omega, Initial residual = 7.03562e-09, Final residual = 7.03562e-09, No Iterations 0
smoothSolver:  Solving for k, Initial residual = 9.05745e-09, Final residual = 9.05745e-09, No Iterations 0
ExecutionTime = 2.37 s  ClockTime = 2 s

forceCoeffs forceCoeffs1 write:
    Coefficient	Total	Pressure	Viscous	Internal
    Cd:	0	0	0	0
    Cd(f):	0	0	0	0
    Cd(r):	0	0	0	0
    Cl:	0	0	0	0
    Cl(f):	0	0	0	0
    Cl(r):	0	0	0	0
    CmPitch:	0	0	0	0
    CmRoll:	0	0	0	0
    CmYaw:	0	0	0	0
    Cs:	0	0	0	0
    Cs(f):	0	0	0	0
    Cs(r):	0	0	0	0

    writing force and moment coefficient files.

Time = 61

smoothSolver:  Solving for Ux, Initial residual = 0.526771, Final residual = 0.266026, No Iterations 1000
smoothSolver:  Solving for Uy, Initial residual = 0.474378, Final residual = 0.0127972, No Iterations 2
smoothSolver:  Solving for Uz, Initial residual = 0.439294, Final residual = 0.0109684, No Iterations 2
GAMG:  Solving for p, Initial residual = 0.0606818, Final residual = 0.000399729, No Iterations 2
time step continuity errors : sum local = 1.60741e-15, global = 1.99518e-17, cumulative = 1.16864e-16
smoothSolver:  Solving for omega, Initial residual = 7.03562e-09, Final residual = 7.03562e-09, No Iterations 0
smoothSolver:  Solving for k, Initial residual = 9.05745e-09, Final residual = 9.05745e-09, No Iterations 0
ExecutionTime = 2.41 s  ClockTime = 2 s

forceCoeffs forceCoeffs1 write:
    Coefficient	Total	Pressure	Viscous	Internal
    Cd:	0	0	0	0
    Cd(f):	0	0	0	0
    Cd(r):	0	0	0	0
    Cl:	0	0	0	0
    Cl(f):	0	0	0	0
    Cl(r):	0	0	0	0
    CmPitch:	0	0	0	0
    CmRoll:	0	0	0	0
    CmYaw:	0	0	0	0
    Cs:	0	0	0	0
    Cs(f):	0	0	0	0
    Cs(r):	0	0	0	0

    writing force and moment coefficient files.

Time = 62

smoothSolver:  Solving for Ux, Initial residual = 0.524275, Final residual = 0.264595, No Iterations 1000
smoothSolver:  Solving for Uy, Initial residual = 0.476981, Final residual = 0.0134212, No Iterations 2
smoothSolver:  Solving for Uz, Initial residual = 0.446467, Final residual = 0.011819, No Iterations 2
GAMG:  Solving for p, Initial residual = 0.0618779, Final residual = 0.000553738, No Iterations 2
time step continuity errors : sum local = 1.57316e-15, global = 9.37388e-17, cumulative = 2.10603e-16
smoothSolver:  Solving for omega, Initial residual = 7.03562e-09, Final residual = 7.03562e-09, No Iterations 0
smoothSolver:  Solving for k, Initial residual = 9.05745e-09, Final residual = 9.05745e-09, No Iterations 0
ExecutionTime = 2.44 s  ClockTime = 2 s

forceCoeffs forceCoeffs1 write:
    Coefficient	Total	Pressure	Viscous	Internal
    Cd:	0	0	0	0
    Cd(f):	0	0	0	0
    Cd(r):	0	0	0	0
    Cl:	0	0	0	0
    Cl(f):	0	0	0	0
    Cl(r):	0	0	0	0
    CmPitch:	0	0	0	0
    CmRoll:	0	0	0	0
    CmYaw:	0	0	0	0
    Cs:	0	0	0	0
    Cs(f):	0	0	0	0
    Cs(r):	0	0	0	0

    writing force and moment coefficient files.

Time = 63

smoothSolver:  Solving for Ux, Initial residual = 0.531164, Final residual = 0.261679, No Iterations 1000
smoothSolver:  Solving for Uy, Initial residual = 0.454205, Final residual = 0.0126989, No Iterations 2
smoothSolver:  Solving for Uz, Initial residual = 0.43147, Final residual = 0.0114608, No Iterations 2
GAMG:  Solving for p, Initial residual = 0.0667364, Final residual = 0.000385705, No Iterations 2
time step continuity errors : sum local = 1.67077e-15, global = 4.96418e-17, cumulative = 2.60244e-16
smoothSolver:  Solving for omega, Initial residual = 7.03562e-09, Final residual = 7.03562e-09, No Iterations 0
smoothSolver:  Solving for k, Initial residual = 9.05745e-09, Final residual = 9.05745e-09, No Iterations 0
ExecutionTime = 2.47 s  ClockTime = 2 s

forceCoeffs forceCoeffs1 write:
    Coefficient	Total	Pressure	Viscous	Internal
    Cd:	0	0	0	0
    Cd(f):	0	0	0	0
    Cd(r):	0	0	0	0
    Cl:	0	0	0	0
    Cl(f):	0	0	0	0
    Cl(r):	0	0	0	0
    CmPitch:	0	0	0	0
    CmRoll:	0	0	0	0
    CmYaw:	0	0	0	0
    Cs:	0	0	0	0
    Cs(f):	0	0	0	0
    Cs(r):	0	0	0	0

    writing force and moment coefficient files.

Time = 64

smoothSolver:  Solving for Ux, Initial residual = 0.533059, Final residual = 0.254378, No Iterations 1000
smoothSolver:  Solving for Uy, Initial residual = 0.460489, Final residual = 0.0116139, No Iterations 2
smoothSolver:  Solving for Uz, Initial residual = 0.441703, Final residual = 0.0111559, No Iterations 2
GAMG:  Solving for p, Initial residual = 0.0605198, Final residual = 0.000570108, No Iterations 2
time step continuity errors : sum local = 1.58295e-15, global = -2.77024e-17, cumulative = 2.32542e-16
smoothSolver:  Solving for omega, Initial residual = 7.03562e-09, Final residual = 7.03562e-09, No Iterations 0
smoothSolver:  Solving for k, Initial residual = 9.05745e-09, Final residual = 9.05745e-09, No Iterations 0
ExecutionTime = 2.51 s  ClockTime = 2 s

forceCoeffs forceCoeffs1 write:
    Coefficient	Total	Pressure	Viscous	Internal
    Cd:	0	0	0	0
    Cd(f):	0	0	0	0
    Cd(r):	0	0	0	0
    Cl:	0	0	0	0
    Cl(f):	0	0	0	0
    Cl(r):	0	0	0	0
    CmPitch:	0	0	0	0
    CmRoll:	0	0	0	0
    CmYaw:	0	0	0	0
    Cs:	0	0	0	0
    Cs(f):	0	0	0	0
    Cs(r):	0	0	0	0

    writing force and moment coefficient files.

Time = 65

smoothSolver:  Solving for Ux, Initial residual = 0.531023, Final residual = 0.261609, No Iterations 1000
smoothSolver:  Solving for Uy, Initial residual = 0.464403, Final residual = 0.010534, No Iterations 2
smoothSolver:  Solving for Uz, Initial residual = 0.439834, Final residual = 0.0117369, No Iterations 2
GAMG:  Solving for p, Initial residual = 0.0545952, Final residual = 0.000191083, No Iterations 3
time step continuity errors : sum local = 1.67434e-15, global = -1.92487e-17, cumulative = 2.13293e-16
smoothSolver:  Solving for omega, Initial residual = 7.03562e-09, Final residual = 7.03562e-09, No Iterations 0
smoothSolver:  Solving for k, Initial residual = 9.05745e-09, Final residual = 9.05745e-09, No Iterations 0
ExecutionTime = 2.54 s  ClockTime = 2 s

forceCoeffs forceCoeffs1 write:
    Coefficient	Total	Pressure	Viscous	Internal
    Cd:	0	0	0	0
    Cd(f):	0	0	0	0
    Cd(r):	0	0	0	0
    Cl:	0	0	0	0
    Cl(f):	0	0	0	0
    Cl(r):	0	0	0	0
    CmPitch:	0	0	0	0
    CmRoll:	0	0	0	0
    CmYaw:	0	0	0	0
    Cs:	0	0	0	0
    Cs(f):	0	0	0	0
    Cs(r):	0	0	0	0

    writing force and moment coefficient files.

Time = 66

smoothSolver:  Solving for Ux, Initial residual = 0.533573, Final residual = 0.268673, No Iterations 1000
smoothSolver:  Solving for Uy, Initial residual = 0.427975, Final residual = 0.0120212, No Iterations 2
smoothSolver:  Solving for Uz, Initial residual = 0.427323, Final residual = 0.010548, No Iterations 2
GAMG:  Solving for p, Initial residual = 0.0544125, Final residual = 0.000464432, No Iterations 2
time step continuity errors : sum local = 1.62581e-15, global = 2.72239e-20, cumulative = 2.13321e-16
smoothSolver:  Solving for omega, Initial residual = 7.03562e-09, Final residual = 7.03562e-09, No Iterations 0
smoothSolver:  Solving for k, Initial residual = 9.05745e-09, Final residual = 9.05745e-09, No Iterations 0
ExecutionTime = 2.59 s  ClockTime = 2 s

forceCoeffs forceCoeffs1 write:
    Coefficient	Total	Pressure	Viscous	Internal
    Cd:	0	0	0	0
    Cd(f):	0	0	0	0
    Cd(r):	0	0	0	0
    Cl:	0	0	0	0
    Cl(f):	0	0	0	0
    Cl(r):	0	0	0	0
    CmPitch:	0	0	0	0
    CmRoll:	0	0	0	0
    CmYaw:	0	0	0	0
    Cs:	0	0	0	0
    Cs(f):	0	0	0	0
    Cs(r):	0	0	0	0

    writing force and moment coefficient files.

Time = 67

smoothSolver:  Solving for Ux, Initial residual = 0.525081, Final residual = 0.259459, No Iterations 1000
smoothSolver:  Solving for Uy, Initial residual = 0.447404, Final residual = 0.0134734, No Iterations 2
smoothSolver:  Solving for Uz, Initial residual = 0.422006, Final residual = 0.0121601, No Iterations 2
GAMG:  Solving for p, Initial residual = 0.0563552, Final residual = 0.000443942, No Iterations 2
time step continuity errors : sum local = 1.62455e-15, global = -6.14452e-17, cumulative = 1.51875e-16
smoothSolver:  Solving for omega, Initial residual = 7.03562e-09, Final residual = 7.03562e-09, No Iterations 0
smoothSolver:  Solving for k, Initial residual = 9.05745e-09, Final residual = 9.05745e-09, No Iterations 0
ExecutionTime = 2.62 s  ClockTime = 2 s

forceCoeffs forceCoeffs1 write:
    Coefficient	Total	Pressure	Viscous	Internal
    Cd:	0	0	0	0
    Cd(f):	0	0	0	0
    Cd(r):	0	0	0	0
    Cl:	0	0	0	0
    Cl(f):	0	0	0	0
    Cl(r):	0	0	0	0
    CmPitch:	0	0	0	0
    CmRoll:	0	0	0	0
    CmYaw:	0	0	0	0
    Cs:	0	0	0	0
    Cs(f):	0	0	0	0
    Cs(r):	0	0	0	0

[...]
    Cl:	0	0	0	0
    Cl(f):	0	0	0	0
    Cl(r):	0	0	0	0
    CmPitch:	0	0	0	0
    CmRoll:	0	0	0	0
    CmYaw:	0	0	0	0
    Cs:	0	0	0	0
    Cs(f):	0	0	0	0
    Cs(r):	0	0	0	0

    writing force and moment coefficient files.

Time = 484

smoothSolver:  Solving for Ux, Initial residual = 0.513392, Final residual = 0.242277, No Iterations 1000
smoothSolver:  Solving for Uy, Initial residual = 0.440228, Final residual = 0.0113035, No Iterations 2
smoothSolver:  Solving for Uz, Initial residual = 0.423082, Final residual = 0.0406537, No Iterations 1
GAMG:  Solving for p, Initial residual = 0.0581668, Final residual = 0.000433772, No Iterations 2
time step continuity errors : sum local = 1.60632e-15, global = 6.68045e-18, cumulative = 1.79998e-15
smoothSolver:  Solving for omega, Initial residual = 7.03562e-09, Final residual = 7.03562e-09, No Iterations 0
smoothSolver:  Solving for k, Initial residual = 9.05745e-09, Final residual = 9.05745e-09, No Iterations 0
ExecutionTime = 18.14 s  ClockTime = 18 s

forceCoeffs forceCoeffs1 write:
    Coefficient	Total	Pressure	Viscous	Internal
    Cd:	0	0	0	0
    Cd(f):	0	0	0	0
    Cd(r):	0	0	0	0
    Cl:	0	0	0	0
    Cl(f):	0	0	0	0
    Cl(r):	0	0	0	0
    CmPitch:	0	0	0	0
    CmRoll:	0	0	0	0
    CmYaw:	0	0	0	0
    Cs:	0	0	0	0
    Cs(f):	0	0	0	0
    Cs(r):	0	0	0	0

    writing force and moment coefficient files.

Time = 485

smoothSolver:  Solving for Ux, Initial residual = 0.530862, Final residual = 0.248803, No Iterations 1000
smoothSolver:  Solving for Uy, Initial residual = 0.467199, Final residual = 0.0145053, No Iterations 2
smoothSolver:  Solving for Uz, Initial residual = 0.419597, Final residual = 0.0118393, No Iterations 2
GAMG:  Solving for p, Initial residual = 0.0585319, Final residual = 0.000345784, No Iterations 2
time step continuity errors : sum local = 1.61274e-15, global = -4.20482e-17, cumulative = 1.75793e-15
smoothSolver:  Solving for omega, Initial residual = 7.03562e-09, Final residual = 7.03562e-09, No Iterations 0
smoothSolver:  Solving for k, Initial residual = 9.05745e-09, Final residual = 9.05745e-09, No Iterations 0
ExecutionTime = 18.18 s  ClockTime = 18 s

forceCoeffs forceCoeffs1 write:
    Coefficient	Total	Pressure	Viscous	Internal
    Cd:	0	0	0	0
    Cd(f):	0	0	0	0
    Cd(r):	0	0	0	0
    Cl:	0	0	0	0
    Cl(f):	0	0	0	0
    Cl(r):	0	0	0	0
    CmPitch:	0	0	0	0
    CmRoll:	0	0	0	0
    CmYaw:	0	0	0	0
    Cs:	0	0	0	0
    Cs(f):	0	0	0	0
    Cs(r):	0	0	0	0

    writing force and moment coefficient files.

Time = 486

smoothSolver:  Solving for Ux, Initial residual = 0.526551, Final residual = 0.262815, No Iterations 1000
smoothSolver:  Solving for Uy, Initial residual = 0.438, Final residual = 0.0109572, No Iterations 2
smoothSolver:  Solving for Uz, Initial residual = 0.416776, Final residual = 0.0111602, No Iterations 2
GAMG:  Solving for p, Initial residual = 0.0565659, Final residual = 0.000313371, No Iterations 2
time step continuity errors : sum local = 1.59352e-15, global = -4.73308e-17, cumulative = 1.7106e-15
smoothSolver:  Solving for omega, Initial residual = 7.03562e-09, Final residual = 7.03562e-09, No Iterations 0
smoothSolver:  Solving for k, Initial residual = 9.05745e-09, Final residual = 9.05745e-09, No Iterations 0
ExecutionTime = 18.21 s  ClockTime = 18 s

forceCoeffs forceCoeffs1 write:
    Coefficient	Total	Pressure	Viscous	Internal
    Cd:	0	0	0	0
    Cd(f):	0	0	0	0
    Cd(r):	0	0	0	0
    Cl:	0	0	0	0
    Cl(f):	0	0	0	0
    Cl(r):	0	0	0	0
    CmPitch:	0	0	0	0
    CmRoll:	0	0	0	0
    CmYaw:	0	0	0	0
    Cs:	0	0	0	0
    Cs(f):	0	0	0	0
    Cs(r):	0	0	0	0

    writing force and moment coefficient files.

Time = 487

smoothSolver:  Solving for Ux, Initial residual = 0.547897, Final residual = 0.276118, No Iterations 1000
smoothSolver:  Solving for Uy, Initial residual = 0.438772, Final residual = 0.0135379, No Iterations 2
smoothSolver:  Solving for Uz, Initial residual = 0.425681, Final residual = 0.0115715, No Iterations 2
GAMG:  Solving for p, Initial residual = 0.0561966, Final residual = 0.000204463, No Iterations 3
time step continuity errors : sum local = 1.54998e-15, global = -1.7603e-17, cumulative = 1.69299e-15
smoothSolver:  Solving for omega, Initial residual = 7.03562e-09, Final residual = 7.03562e-09, No Iterations 0
smoothSolver:  Solving for k, Initial residual = 9.05745e-09, Final residual = 9.05745e-09, No Iterations 0
ExecutionTime = 18.24 s  ClockTime = 18 s

forceCoeffs forceCoeffs1 write:
    Coefficient	Total	Pressure	Viscous	Internal
    Cd:	0	0	0	0
    Cd(f):	0	0	0	0
    Cd(r):	0	0	0	0
    Cl:	0	0	0	0
    Cl(f):	0	0	0	0
    Cl(r):	0	0	0	0
    CmPitch:	0	0	0	0
    CmRoll:	0	0	0	0
    CmYaw:	0	0	0	0
    Cs:	0	0	0	0
    Cs(f):	0	0	0	0
    Cs(r):	0	0	0	0

    writing force and moment coefficient files.

Time = 488

smoothSolver:  Solving for Ux, Initial residual = 0.512601, Final residual = 0.27005, No Iterations 1000
smoothSolver:  Solving for Uy, Initial residual = 0.440709, Final residual = 0.0145719, No Iterations 2
smoothSolver:  Solving for Uz, Initial residual = 0.402856, Final residual = 0.0125323, No Iterations 2
GAMG:  Solving for p, Initial residual = 0.0538014, Final residual = 0.00049988, No Iterations 2
time step continuity errors : sum local = 1.63508e-15, global = 7.21453e-17, cumulative = 1.76514e-15
smoothSolver:  Solving for omega, Initial residual = 7.03562e-09, Final residual = 7.03562e-09, No Iterations 0
smoothSolver:  Solving for k, Initial residual = 9.05745e-09, Final residual = 9.05745e-09, No Iterations 0
ExecutionTime = 18.29 s  ClockTime = 18 s

forceCoeffs forceCoeffs1 write:
    Coefficient	Total	Pressure	Viscous	Internal
    Cd:	0	0	0	0
    Cd(f):	0	0	0	0
    Cd(r):	0	0	0	0
    Cl:	0	0	0	0
    Cl(f):	0	0	0	0
    Cl(r):	0	0	0	0
    CmPitch:	0	0	0	0
    CmRoll:	0	0	0	0
    CmYaw:	0	0	0	0
    Cs:	0	0	0	0
    Cs(f):	0	0	0	0
    Cs(r):	0	0	0	0

    writing force and moment coefficient files.

Time = 489

smoothSolver:  Solving for Ux, Initial residual = 0.533107, Final residual = 0.260091, No Iterations 1000
smoothSolver:  Solving for Uy, Initial residual = 0.434321, Final residual = 0.00993243, No Iterations 2
smoothSolver:  Solving for Uz, Initial residual = 0.407714, Final residual = 0.0119201, No Iterations 2
GAMG:  Solving for p, Initial residual = 0.0626113, Final residual = 0.000498771, No Iterations 2
time step continuity errors : sum local = 1.63988e-15, global = 9.05472e-17, cumulative = 1.85569e-15
smoothSolver:  Solving for omega, Initial residual = 7.03562e-09, Final residual = 7.03562e-09, No Iterations 0
smoothSolver:  Solving for k, Initial residual = 9.05745e-09, Final residual = 9.05745e-09, No Iterations 0
ExecutionTime = 18.32 s  ClockTime = 18 s

forceCoeffs forceCoeffs1 write:
    Coefficient	Total	Pressure	Viscous	Internal
    Cd:	0	0	0	0
    Cd(f):	0	0	0	0
    Cd(r):	0	0	0	0
    Cl:	0	0	0	0
    Cl(f):	0	0	0	0
    Cl(r):	0	0	0	0
    CmPitch:	0	0	0	0
    CmRoll:	0	0	0	0
    CmYaw:	0	0	0	0
    Cs:	0	0	0	0
    Cs(f):	0	0	0	0
    Cs(r):	0	0	0	0

    writing force and moment coefficient files.

Time = 490

smoothSolver:  Solving for Ux, Initial residual = 0.523415, Final residual = 0.263779, No Iterations 1000
smoothSolver:  Solving for Uy, Initial residual = 0.452326, Final residual = 0.0119673, No Iterations 2
smoothSolver:  Solving for Uz, Initial residual = 0.439002, Final residual = 0.0115395, No Iterations 2
GAMG:  Solving for p, Initial residual = 0.0595631, Final residual = 0.000495579, No Iterations 2
time step continuity errors : sum local = 1.65877e-15, global = 3.58651e-17, cumulative = 1.89155e-15
smoothSolver:  Solving for omega, Initial residual = 7.03562e-09, Final residual = 7.03562e-09, No Iterations 0
smoothSolver:  Solving for k, Initial residual = 9.05745e-09, Final residual = 9.05745e-09, No Iterations 0
ExecutionTime = 18.34 s  ClockTime = 18 s

forceCoeffs forceCoeffs1 write:
    Coefficient	Total	Pressure	Viscous	Internal
    Cd:	0	0	0	0
    Cd(f):	0	0	0	0
    Cd(r):	0	0	0	0
    Cl:	0	0	0	0
    Cl(f):	0	0	0	0
    Cl(r):	0	0	0	0
    CmPitch:	0	0	0	0
    CmRoll:	0	0	0	0
    CmYaw:	0	0	0	0
    Cs:	0	0	0	0
    Cs(f):	0	0	0	0
    Cs(r):	0	0	0	0

    writing force and moment coefficient files.

Time = 491

smoothSolver:  Solving for Ux, Initial residual = 0.528734, Final residual = 0.268278, No Iterations 1000
smoothSolver:  Solving for Uy, Initial residual = 0.440253, Final residual = 0.0117591, No Iterations 2
smoothSolver:  Solving for Uz, Initial residual = 0.417716, Final residual = 0.0113074, No Iterations 2
GAMG:  Solving for p, Initial residual = 0.0578372, Final residual = 0.000524597, No Iterations 2
time step continuity errors : sum local = 1.59807e-15, global = 1.34922e-17, cumulative = 1.90504e-15
smoothSolver:  Solving for omega, Initial residual = 7.03562e-09, Final residual = 7.03562e-09, No Iterations 0
smoothSolver:  Solving for k, Initial residual = 9.05745e-09, Final residual = 9.05745e-09, No Iterations 0
ExecutionTime = 18.37 s  ClockTime = 18 s

forceCoeffs forceCoeffs1 write:
    Coefficient	Total	Pressure	Viscous	Internal
    Cd:	0	0	0	0
    Cd(f):	0	0	0	0
    Cd(r):	0	0	0	0
    Cl:	0	0	0	0
    Cl(f):	0	0	0	0
    Cl(r):	0	0	0	0
    CmPitch:	0	0	0	0
    CmRoll:	0	0	0	0
    CmYaw:	0	0	0	0
    Cs:	0	0	0	0
    Cs(f):	0	0	0	0
    Cs(r):	0	0	0	0

    writing force and moment coefficient files.

Time = 492

smoothSolver:  Solving for Ux, Initial residual = 0.531535, Final residual = 0.267476, No Iterations 1000
smoothSolver:  Solving for Uy, Initial residual = 0.467771, Final residual = 0.0131059, No Iterations 2
smoothSolver:  Solving for Uz, Initial residual = 0.439752, Final residual = 0.0110687, No Iterations 2
GAMG:  Solving for p, Initial residual = 0.0570268, Final residual = 0.000311748, No Iterations 2
time step continuity errors : sum local = 1.56272e-15, global = -2.69887e-17, cumulative = 1.87806e-15
smoothSolver:  Solving for omega, Initial residual = 7.03562e-09, Final residual = 7.03562e-09, No Iterations 0
smoothSolver:  Solving for k, Initial residual = 9.05745e-09, Final residual = 9.05745e-09, No Iterations 0
ExecutionTime = 18.42 s  ClockTime = 18 s

forceCoeffs forceCoeffs1 write:
    Coefficient	Total	Pressure	Viscous	Internal
    Cd:	0	0	0	0
    Cd(f):	0	0	0	0
    Cd(r):	0	0	0	0
    Cl:	0	0	0	0
    Cl(f):	0	0	0	0
    Cl(r):	0	0	0	0
    CmPitch:	0	0	0	0
    CmRoll:	0	0	0	0
    CmYaw:	0	0	0	0
    Cs:	0	0	0	0
    Cs(f):	0	0	0	0
    Cs(r):	0	0	0	0

    writing force and moment coefficient files.

Time = 493

smoothSolver:  Solving for Ux, Initial residual = 0.519933, Final residual = 0.264547, No Iterations 1000
smoothSolver:  Solving for Uy, Initial residual = 0.429555, Final residual = 0.0102707, No Iterations 2
smoothSolver:  Solving for Uz, Initial residual = 0.416277, Final residual = 0.00970171, No Iterations 2
GAMG:  Solving for p, Initial residual = 0.0566016, Final residual = 0.000205087, No Iterations 3
time step continuity errors : sum local = 1.58026e-15, global = -7.81253e-18, cumulative = 1.87024e-15
smoothSolver:  Solving for omega, Initial residual = 7.03562e-09, Final residual = 7.03562e-09, No Iterations 0
smoothSolver:  Solving for k, Initial residual = 9.05745e-09, Final residual = 9.05745e-09, No Iterations 0
ExecutionTime = 18.44 s  ClockTime = 18 s

forceCoeffs forceCoeffs1 write:
    Coefficient	Total	Pressure	Viscous	Internal
    Cd:	0	0	0	0
    Cd(f):	0	0	0	0
    Cd(r):	0	0	0	0
    Cl:	0	0	0	0
    Cl(f):	0	0	0	0
    Cl(r):	0	0	0	0
    CmPitch:	0	0	0	0
    CmRoll:	0	0	0	0
    CmYaw:	0	0	0	0
    Cs:	0	0	0	0
    Cs(f):	0	0	0	0
    Cs(r):	0	0	0	0

    writing force and moment coefficient files.

Time = 494

smoothSolver:  Solving for Ux, Initial residual = 0.536865, Final residual = 0.267812, No Iterations 1000
smoothSolver:  Solving for Uy, Initial residual = 0.445867, Final residual = 0.0139913, No Iterations 2
smoothSolver:  Solving for Uz, Initial residual = 0.422078, Final residual = 0.0133153, No Iterations 2
GAMG:  Solving for p, Initial residual = 0.0563002, Final residual = 0.000232788, No Iterations 3
time step continuity errors : sum local = 1.53767e-15, global = -9.55723e-19, cumulative = 1.86929e-15
smoothSolver:  Solving for omega, Initial residual = 7.03562e-09, Final residual = 7.03562e-09, No Iterations 0
smoothSolver:  Solving for k, Initial residual = 9.05745e-09, Final residual = 9.05745e-09, No Iterations 0
ExecutionTime = 18.47 s  ClockTime = 18 s

forceCoeffs forceCoeffs1 write:
    Coefficient	Total	Pressure	Viscous	Internal
    Cd:	0	0	0	0
    Cd(f):	0	0	0	0
    Cd(r):	0	0	0	0
    Cl:	0	0	0	0
    Cl(f):	0	0	0	0
    Cl(r):	0	0	0	0
    CmPitch:	0	0	0	0
    CmRoll:	0	0	0	0
    CmYaw:	0	0	0	0
    Cs:	0	0	0	0
    Cs(f):	0	0	0	0
    Cs(r):	0	0	0	0

    writing force and moment coefficient files.

Time = 495

smoothSolver:  Solving for Ux, Initial residual = 0.520881, Final residual = 0.280594, No Iterations 1000
smoothSolver:  Solving for Uy, Initial residual = 0.436245, Final residual = 0.011711, No Iterations 2
smoothSolver:  Solving for Uz, Initial residual = 0.417373, Final residual = 0.0121276, No Iterations 2
GAMG:  Solving for p, Initial residual = 0.0587068, Final residual = 0.000468153, No Iterations 2
time step continuity errors : sum local = 1.6135e-15, global = 4.57613e-17, cumulative = 1.91505e-15
smoothSolver:  Solving for omega, Initial residual = 7.03562e-09, Final residual = 7.03562e-09, No Iterations 0
smoothSolver:  Solving for k, Initial residual = 9.05745e-09, Final residual = 9.05745e-09, No Iterations 0
ExecutionTime = 18.51 s  ClockTime = 18 s

forceCoeffs forceCoeffs1 write:
    Coefficient	Total	Pressure	Viscous	Internal
    Cd:	0	0	0	0
    Cd(f):	0	0	0	0
    Cd(r):	0	0	0	0
    Cl:	0	0	0	0
    Cl(f):	0	0	0	0
    Cl(r):	0	0	0	0
    CmPitch:	0	0	0	0
    CmRoll:	0	0	0	0
    CmYaw:	0	0	0	0
    Cs:	0	0	0	0
    Cs(f):	0	0	0	0
    Cs(r):	0	0	0	0

    writing force and moment coefficient files.

Time = 496

smoothSolver:  Solving for Ux, Initial residual = 0.522605, Final residual = 0.262171, No Iterations 1000
smoothSolver:  Solving for Uy, Initial residual = 0.452394, Final residual = 0.0121475, No Iterations 2
smoothSolver:  Solving for Uz, Initial residual = 0.441068, Final residual = 0.0123336, No Iterations 2
GAMG:  Solving for p, Initial residual = 0.0584102, Final residual = 0.000337442, No Iterations 2
time step continuity errors : sum local = 1.56548e-15, global = 3.4824e-17, cumulative = 1.94987e-15
smoothSolver:  Solving for omega, Initial residual = 7.03562e-09, Final residual = 7.03562e-09, No Iterations 0
smoothSolver:  Solving for k, Initial residual = 9.05745e-09, Final residual = 9.05745e-09, No Iterations 0
ExecutionTime = 18.54 s  ClockTime = 18 s

forceCoeffs forceCoeffs1 write:
    Coefficient	Total	Pressure	Viscous	Internal
    Cd:	0	0	0	0
    Cd(f):	0	0	0	0
    Cd(r):	0	0	0	0
    Cl:	0	0	0	0
    Cl(f):	0	0	0	0
    Cl(r):	0	0	0	0
    CmPitch:	0	0	0	0
    CmRoll:	0	0	0	0
    CmYaw:	0	0	0	0
    Cs:	0	0	0	0
    Cs(f):	0	0	0	0
    Cs(r):	0	0	0	0

    writing force and moment coefficient files.

Time = 497

smoothSolver:  Solving for Ux, Initial residual = 0.526457, Final residual = 0.254205, No Iterations 1000
smoothSolver:  Solving for Uy, Initial residual = 0.431761, Final residual = 0.0121469, No Iterations 2
smoothSolver:  Solving for Uz, Initial residual = 0.423039, Final residual = 0.0127429, No Iterations 2
GAMG:  Solving for p, Initial residual = 0.0571885, Final residual = 0.000520502, No Iterations 2
time step continuity errors : sum local = 1.66758e-15, global = 2.10564e-18, cumulative = 1.95198e-15
smoothSolver:  Solving for omega, Initial residual = 7.03562e-09, Final residual = 7.03562e-09, No Iterations 0
smoothSolver:  Solving for k, Initial residual = 9.05745e-09, Final residual = 9.05745e-09, No Iterations 0
ExecutionTime = 18.57 s  ClockTime = 19 s

forceCoeffs forceCoeffs1 write:
    Coefficient	Total	Pressure	Viscous	Internal
    Cd:	0	0	0	0
    Cd(f):	0	0	0	0
    Cd(r):	0	0	0	0
    Cl:	0	0	0	0
    Cl(f):	0	0	0	0
    Cl(r):	0	0	0	0
    CmPitch:	0	0	0	0
    CmRoll:	0	0	0	0
    CmYaw:	0	0	0	0
    Cs:	0	0	0	0
    Cs(f):	0	0	0	0
    Cs(r):	0	0	0	0

    writing force and moment coefficient files.

Time = 498

smoothSolver:  Solving for Ux, Initial residual = 0.519824, Final residual = 0.252337, No Iterations 1000
smoothSolver:  Solving for Uy, Initial residual = 0.443486, Final residual = 0.0167686, No Iterations 2
smoothSolver:  Solving for Uz, Initial residual = 0.428981, Final residual = 0.0113921, No Iterations 2
GAMG:  Solving for p, Initial residual = 0.0563797, Final residual = 0.00042842, No Iterations 2
time step continuity errors : sum local = 1.5924e-15, global = 5.62246e-18, cumulative = 1.9576e-15
smoothSolver:  Solving for omega, Initial residual = 7.03562e-09, Final residual = 7.03562e-09, No Iterations 0
smoothSolver:  Solving for k, Initial residual = 9.05745e-09, Final residual = 9.05745e-09, No Iterations 0
ExecutionTime = 18.6 s  ClockTime = 19 s

forceCoeffs forceCoeffs1 write:
    Coefficient	Total	Pressure	Viscous	Internal
    Cd:	0	0	0	0
    Cd(f):	0	0	0	0
    Cd(r):	0	0	0	0
    Cl:	0	0	0	0
    Cl(f):	0	0	0	0
    Cl(r):	0	0	0	0
    CmPitch:	0	0	0	0
    CmRoll:	0	0	0	0
    CmYaw:	0	0	0	0
    Cs:	0	0	0	0
    Cs(f):	0	0	0	0
    Cs(r):	0	0	0	0

    writing force and moment coefficient files.

Time = 499

smoothSolver:  Solving for Ux, Initial residual = 0.531064, Final residual = 0.270188, No Iterations 1000
smoothSolver:  Solving for Uy, Initial residual = 0.445179, Final residual = 0.0148168, No Iterations 2
smoothSolver:  Solving for Uz, Initial residual = 0.428615, Final residual = 0.0117786, No Iterations 2
GAMG:  Solving for p, Initial residual = 0.0567885, Final residual = 0.000469928, No Iterations 2
time step continuity errors : sum local = 1.58329e-15, global = 8.62257e-18, cumulative = 1.96622e-15
smoothSolver:  Solving for omega, Initial residual = 7.03562e-09, Final residual = 7.03562e-09, No Iterations 0
smoothSolver:  Solving for k, Initial residual = 9.05745e-09, Final residual = 9.05745e-09, No Iterations 0
ExecutionTime = 18.64 s  ClockTime = 19 s

forceCoeffs forceCoeffs1 write:
    Coefficient	Total	Pressure	Viscous	Internal
    Cd:	0	0	0	0
    Cd(f):	0	0	0	0
    Cd(r):	0	0	0	0
    Cl:	0	0	0	0
    Cl(f):	0	0	0	0
    Cl(r):	0	0	0	0
    CmPitch:	0	0	0	0
    CmRoll:	0	0	0	0
    CmYaw:	0	0	0	0
    Cs:	0	0	0	0
    Cs(f):	0	0	0	0
    Cs(r):	0	0	0	0

    writing force and moment coefficient files.

Time = 500

smoothSolver:  Solving for Ux, Initial residual = 0.51673, Final residual = 0.267477, No Iterations 1000
smoothSolver:  Solving for Uy, Initial residual = 0.468535, Final residual = 0.0124153, No Iterations 2
smoothSolver:  Solving for Uz, Initial residual = 0.424417, Final residual = 0.0117166, No Iterations 2
GAMG:  Solving for p, Initial residual = 0.0538799, Final residual = 0.000452438, No Iterations 2
time step continuity errors : sum local = 1.59214e-15, global = 1.24345e-17, cumulative = 1.97866e-15
smoothSolver:  Solving for omega, Initial residual = 7.03562e-09, Final residual = 7.03562e-09, No Iterations 0
smoothSolver:  Solving for k, Initial residual = 9.05745e-09, Final residual = 9.05745e-09, No Iterations 0
ExecutionTime = 18.65 s  ClockTime = 19 s

streamLine streamLines write:
    seeded 20 particles
    Tracks:20
    Total samples:1720
nearWallFields near write:
    Sampling fields to 500
    Writing sampled fields to 500
wallBoundedStreamLine wallBoundedStreamLines write:
wallBoundedStreamLine : seeded 0 particles.
    Tracks:0
    Total samples:0
forceCoeffs forceCoeffs1 write:
    Coefficient	Total	Pressure	Viscous	Internal
    Cd:	0	0	0	0
    Cd(f):	0	0	0	0
    Cd(r):	0	0	0	0
    Cl:	0	0	0	0
    Cl(f):	0	0	0	0
    Cl(r):	0	0	0	0
    CmPitch:	0	0	0	0
    CmRoll:	0	0	0	0
    CmYaw:	0	0	0	0
    Cs:	0	0	0	0
    Cs(f):	0	0	0	0
    Cs(r):	0	0	0	0

    writing force and moment coefficient files.

ensightWrite ensightWrite write: ( k omega p U )
End

Finalising parallel run
