/*---------------------------------------------------------------------------*\
| =========                 |                                                 |
| \\      /  F ield         | OpenFOAM: The Open Source CFD Toolbox           |
|  \\    /   O peration     | Version:  2312                                  |
|   \\  /    A nd           | Website:  www.openfoam.com                      |
|    \\/     M anipulation  |                                                 |
\*---------------------------------------------------------------------------*/
Build  : _1d8f0d55f7-20231221 OPENFOAM=2312 version=v2312
Arch   : "LSB;label=32;scalar=64"
Exec   : surfaceFeatureExtract
Date   : May 26 2024
Time   : 16:10:40
Host   : aion-0180
PID    : 2522952
I/O    : uncollated
Case   : /mnt/aiongpfs/users/pvares/OpenFOAM/openfoam-OpenFOAM-v2312-tutorials-incompressible-simpleFoam-motorBike/tutorials/incompressible/simpleFoam/motorBike
nProcs : 1
trapFpe: Floating point exception trapping enabled (FOAM_SIGFPE).
fileModificationChecking : Monitoring run-time modified files using timeStampMaster (fileModificationSkew 5, maxFileModificationPolls 20)
allowSystemOperations : Allowing user-supplied system call operations

// * * * * * * * * * * * * * * * * * * * * * * * * * * * * * * * * * * * * * //
Create time


Note: Feature line extraction only valid on closed manifold surfaces

Reading surfaceFeatureExtractDict

Surfaces     : motorBike.obj
Output       : motorBike
Load options : offset
Write options: writeObj=yes writeVTK=off

Statistics:
Triangles    : 331653 in 67 region(s)
Vertices     : 132871
Bounding Box : (-0.291665 -0.350289 -4.232e-05) (1.75115 0.332267 1.35152)

Constructing feature set from included angle 150
Selecting edges based purely on geometric tests: no
Removing all non-manifold edges (edges with > 2 connected faces) unless they cross multiple regions

Initial Feature set:
    points : 2292
    edges  : 20867
    of which
        region edges   : 8678
        external edges : 2966
        internal edges : 9223

Final Feature set:
    points : 20665
    of which
        convex             : 409
        concave            : 631
        mixed              : 1252
        non-feature        : 18373
    edges  : 20867
    of which
        external edges     : 6432
        internal edges     : 11654
        flat edges         : 95
        open edges         : 49
        multiply connected : 2637

Writing extendedFeatureEdgeMesh to "/mnt/aiongpfs/users/pvares/OpenFOAM/openfoam-OpenFOAM-v2312-tutorials-incompressible-simpleFoam-motorBike/tutorials/incompressible/simpleFoam/motorBike/constant/extendedFeatureEdgeMesh/motorBike.extendedFeatureEdgeMesh"

Writing extendedEdgeMesh components to "/mnt/aiongpfs/users/pvares/OpenFOAM/openfoam-OpenFOAM-v2312-tutorials-incompressible-simpleFoam-motorBike/tutorials/incompressible/simpleFoam/motorBike/constant/extendedFeatureEdgeMesh/motorBike"
Writing 409 convex feature points to "/mnt/aiongpfs/users/pvares/OpenFOAM/openfoam-OpenFOAM-v2312-tutorials-incompressible-simpleFoam-motorBike/tutorials/incompressible/simpleFoam/motorBike/constant/extendedFeatureEdgeMesh/motorBike_convexFeaturePts.obj"
Writing 631 concave feature points to "/mnt/aiongpfs/users/pvares/OpenFOAM/openfoam-OpenFOAM-v2312-tutorials-incompressible-simpleFoam-motorBike/tutorials/incompressible/simpleFoam/motorBike/constant/extendedFeatureEdgeMesh/motorBike_concaveFeaturePts.obj"
Writing 1252 mixed feature points to "/mnt/aiongpfs/users/pvares/OpenFOAM/openfoam-OpenFOAM-v2312-tutorials-incompressible-simpleFoam-motorBike/tutorials/incompressible/simpleFoam/motorBike/constant/extendedFeatureEdgeMesh/motorBike_mixedFeaturePts.obj"
Writing 1252 mixed feature point structure to "/mnt/aiongpfs/users/pvares/OpenFOAM/openfoam-OpenFOAM-v2312-tutorials-incompressible-simpleFoam-motorBike/tutorials/incompressible/simpleFoam/motorBike/constant/extendedFeatureEdgeMesh/motorBike_mixedFeaturePtsStructure.obj"
Writing 6432 external edges to "/mnt/aiongpfs/users/pvares/OpenFOAM/openfoam-OpenFOAM-v2312-tutorials-incompressible-simpleFoam-motorBike/tutorials/incompressible/simpleFoam/motorBike/constant/extendedFeatureEdgeMesh/motorBike_externalEdges.obj"
Writing 11654 internal edges to "/mnt/aiongpfs/users/pvares/OpenFOAM/openfoam-OpenFOAM-v2312-tutorials-incompressible-simpleFoam-motorBike/tutorials/incompressible/simpleFoam/motorBike/constant/extendedFeatureEdgeMesh/motorBike_internalEdges.obj"
Writing 95 flat edges to "/mnt/aiongpfs/users/pvares/OpenFOAM/openfoam-OpenFOAM-v2312-tutorials-incompressible-simpleFoam-motorBike/tutorials/incompressible/simpleFoam/motorBike/constant/extendedFeatureEdgeMesh/motorBike_flatEdges.obj"
Writing 49 open edges to "/mnt/aiongpfs/users/pvares/OpenFOAM/openfoam-OpenFOAM-v2312-tutorials-incompressible-simpleFoam-motorBike/tutorials/incompressible/simpleFoam/motorBike/constant/extendedFeatureEdgeMesh/motorBike_openEdges.obj"
Writing 2637 multiple edges to "/mnt/aiongpfs/users/pvares/OpenFOAM/openfoam-OpenFOAM-v2312-tutorials-incompressible-simpleFoam-motorBike/tutorials/incompressible/simpleFoam/motorBike/constant/extendedFeatureEdgeMesh/motorBike_multipleEdges.obj"
Writing 8678 region edges to "/mnt/aiongpfs/users/pvares/OpenFOAM/openfoam-OpenFOAM-v2312-tutorials-incompressible-simpleFoam-motorBike/tutorials/incompressible/simpleFoam/motorBike/constant/extendedFeatureEdgeMesh/motorBike_regionEdges.obj"
Writing 20867 edge directions to "/mnt/aiongpfs/users/pvares/OpenFOAM/openfoam-OpenFOAM-v2312-tutorials-incompressible-simpleFoam-motorBike/tutorials/incompressible/simpleFoam/motorBike/constant/extendedFeatureEdgeMesh/motorBike_edgeDirections.obj"

Writing featureEdgeMesh to "/mnt/aiongpfs/users/pvares/OpenFOAM/openfoam-OpenFOAM-v2312-tutorials-incompressible-simpleFoam-motorBike/tutorials/incompressible/simpleFoam/motorBike/constant/triSurface/motorBike.eMesh"
ExecutionTime = 1.06 s  ClockTime = 1 s

End

