/*---------------------------------------------------------------------------*\
| =========                 |                                                 |
| \\      /  F ield         | OpenFOAM: The Open Source CFD Toolbox           |
|  \\    /   O peration     | Version:  2312                                  |
|   \\  /    A nd           | Website:  www.openfoam.com                      |
|    \\/     M anipulation  |                                                 |
\*---------------------------------------------------------------------------*/
Build  : _1d8f0d55f7-20231221 OPENFOAM=2312 version=v2312
Arch   : "LSB;label=32;scalar=64"
Exec   : simpleFoam -case motorBike
Date   : May 26 2024
Time   : 03:00:35
Host   : aion-0125
PID    : 1864556
I/O    : uncollated
Case   : /mnt/aiongpfs/users/pvares/OpenFOAM/openfoam-OpenFOAM-v2312-tutorials-incompressible-simpleFoam-motorBike/tutorials/incompressible/simpleFoam/motorBike/stage/generic/default/builtin/OpenFOAMMotorBikeTest/motorBike
nProcs : 1
trapFpe: Floating point exception trapping enabled (FOAM_SIGFPE).
fileModificationChecking : Monitoring run-time modified files using timeStampMaster (fileModificationSkew 5, maxFileModificationPolls 20)
allowSystemOperations : Allowing user-supplied system call operations

// * * * * * * * * * * * * * * * * * * * * * * * * * * * * * * * * * * * * * //
